<additional>
	<inductionLoop id="enx4y0nx4y1_1" lane="enx4y0nx4y1_1" pos="-2" file="/dev/null" freq="1"/>
	<inductionLoop id="enx4y2nx4y1_1" lane="enx4y2nx4y1_1" pos="-2" file="/dev/null" freq="1"/>
	<inductionLoop id="enx3y1nx4y1_1" lane="enx3y1nx4y1_1" pos="-2" file="/dev/null" freq="1"/>
	<inductionLoop id="enx5y1nx4y1_1" lane="enx5y1nx4y1_1" pos="-2" file="/dev/null" freq="1"/>
	<inductionLoop id="enx4y1nx4y2_1" lane="enx4y1nx4y2_1" pos="-2" file="/dev/null" freq="1"/>
	<inductionLoop id="enx4y3nx4y2_1" lane="enx4y3nx4y2_1" pos="-2" file="/dev/null" freq="1"/>
	<inductionLoop id="enx3y2nx4y2_1" lane="enx3y2nx4y2_1" pos="-2" file="/dev/null" freq="1"/>
	<inductionLoop id="enx5y2nx4y2_1" lane="enx5y2nx4y2_1" pos="-2" file="/dev/null" freq="1"/>
	<inductionLoop id="enx4y2nx4y3_1" lane="enx4y2nx4y3_1" pos="-2" file="/dev/null" freq="1"/>
	<inductionLoop id="enx4y4nx4y3_1" lane="enx4y4nx4y3_1" pos="-2" file="/dev/null" freq="1"/>
	<inductionLoop id="enx3y3nx4y3_1" lane="enx3y3nx4y3_1" pos="-2" file="/dev/null" freq="1"/>
	<inductionLoop id="enx5y3nx4y3_1" lane="enx5y3nx4y3_1" pos="-2" file="/dev/null" freq="1"/>
	<inductionLoop id="enx4y3nx4y4_1" lane="enx4y3nx4y4_1" pos="-2" file="/dev/null" freq="1"/>
	<inductionLoop id="enx4y5nx4y4_1" lane="enx4y5nx4y4_1" pos="-2" file="/dev/null" freq="1"/>
	<inductionLoop id="enx3y4nx4y4_1" lane="enx3y4nx4y4_1" pos="-2" file="/dev/null" freq="1"/>
	<inductionLoop id="enx5y4nx4y4_1" lane="enx5y4nx4y4_1" pos="-2" file="/dev/null" freq="1"/>
	<inductionLoop id="enx3y3nx3y4_1" lane="enx3y3nx3y4_1" pos="-2" file="/dev/null" freq="1"/>
	<inductionLoop id="enx3y5nx3y4_1" lane="enx3y5nx3y4_1" pos="-2" file="/dev/null" freq="1"/>
	<inductionLoop id="enx2y4nx3y4_1" lane="enx2y4nx3y4_1" pos="-2" file="/dev/null" freq="1"/>
	<inductionLoop id="enx4y4nx3y4_1" lane="enx4y4nx3y4_1" pos="-2" file="/dev/null" freq="1"/>
	<inductionLoop id="enx3y2nx3y3_1" lane="enx3y2nx3y3_1" pos="-2" file="/dev/null" freq="1"/>
	<inductionLoop id="enx3y4nx3y3_1" lane="enx3y4nx3y3_1" pos="-2" file="/dev/null" freq="1"/>
	<inductionLoop id="enx2y3nx3y3_1" lane="enx2y3nx3y3_1" pos="-2" file="/dev/null" freq="1"/>
	<inductionLoop id="enx4y3nx3y3_1" lane="enx4y3nx3y3_1" pos="-2" file="/dev/null" freq="1"/>
	<inductionLoop id="enx3y1nx3y2_1" lane="enx3y1nx3y2_1" pos="-2" file="/dev/null" freq="1"/>
	<inductionLoop id="enx3y3nx3y2_1" lane="enx3y3nx3y2_1" pos="-2" file="/dev/null" freq="1"/>
	<inductionLoop id="enx2y2nx3y2_1" lane="enx2y2nx3y2_1" pos="-2" file="/dev/null" freq="1"/>
	<inductionLoop id="enx4y2nx3y2_1" lane="enx4y2nx3y2_1" pos="-2" file="/dev/null" freq="1"/>
	<inductionLoop id="enx3y0nx3y1_1" lane="enx3y0nx3y1_1" pos="-2" file="/dev/null" freq="1"/>
	<inductionLoop id="enx3y2nx3y1_1" lane="enx3y2nx3y1_1" pos="-2" file="/dev/null" freq="1"/>
	<inductionLoop id="enx2y1nx3y1_1" lane="enx2y1nx3y1_1" pos="-2" file="/dev/null" freq="1"/>
	<inductionLoop id="enx4y1nx3y1_1" lane="enx4y1nx3y1_1" pos="-2" file="/dev/null" freq="1"/>
	<inductionLoop id="enx2y1nx2y2_1" lane="enx2y1nx2y2_1" pos="-2" file="/dev/null" freq="1"/>
	<inductionLoop id="enx2y3nx2y2_1" lane="enx2y3nx2y2_1" pos="-2" file="/dev/null" freq="1"/>
	<inductionLoop id="enx1y2nx2y2_1" lane="enx1y2nx2y2_1" pos="-2" file="/dev/null" freq="1"/>
	<inductionLoop id="enx3y2nx2y2_1" lane="enx3y2nx2y2_1" pos="-2" file="/dev/null" freq="1"/>
	<inductionLoop id="enx2y2nx2y3_1" lane="enx2y2nx2y3_1" pos="-2" file="/dev/null" freq="1"/>
	<inductionLoop id="enx2y4nx2y3_1" lane="enx2y4nx2y3_1" pos="-2" file="/dev/null" freq="1"/>
	<inductionLoop id="enx1y3nx2y3_1" lane="enx1y3nx2y3_1" pos="-2" file="/dev/null" freq="1"/>
	<inductionLoop id="enx3y3nx2y3_1" lane="enx3y3nx2y3_1" pos="-2" file="/dev/null" freq="1"/>
	<inductionLoop id="enx2y0nx2y1_1" lane="enx2y0nx2y1_1" pos="-2" file="/dev/null" freq="1"/>
	<inductionLoop id="enx2y2nx2y1_1" lane="enx2y2nx2y1_1" pos="-2" file="/dev/null" freq="1"/>
	<inductionLoop id="enx1y1nx2y1_1" lane="enx1y1nx2y1_1" pos="-2" file="/dev/null" freq="1"/>
	<inductionLoop id="enx3y1nx2y1_1" lane="enx3y1nx2y1_1" pos="-2" file="/dev/null" freq="1"/>
	<inductionLoop id="enx2y3nx2y4_1" lane="enx2y3nx2y4_1" pos="-2" file="/dev/null" freq="1"/>
	<inductionLoop id="enx2y5nx2y4_1" lane="enx2y5nx2y4_1" pos="-2" file="/dev/null" freq="1"/>
	<inductionLoop id="enx1y4nx2y4_1" lane="enx1y4nx2y4_1" pos="-2" file="/dev/null" freq="1"/>
	<inductionLoop id="enx3y4nx2y4_1" lane="enx3y4nx2y4_1" pos="-2" file="/dev/null" freq="1"/>
	<inductionLoop id="enx1y0nx1y1_1" lane="enx1y0nx1y1_1" pos="-2" file="/dev/null" freq="1"/>
	<inductionLoop id="enx1y2nx1y1_1" lane="enx1y2nx1y1_1" pos="-2" file="/dev/null" freq="1"/>
	<inductionLoop id="enx0y1nx1y1_1" lane="enx0y1nx1y1_1" pos="-2" file="/dev/null" freq="1"/>
	<inductionLoop id="enx2y1nx1y1_1" lane="enx2y1nx1y1_1" pos="-2" file="/dev/null" freq="1"/>
	<inductionLoop id="enx1y2nx1y3_1" lane="enx1y2nx1y3_1" pos="-2" file="/dev/null" freq="1"/>
	<inductionLoop id="enx1y4nx1y3_1" lane="enx1y4nx1y3_1" pos="-2" file="/dev/null" freq="1"/>
	<inductionLoop id="enx0y3nx1y3_1" lane="enx0y3nx1y3_1" pos="-2" file="/dev/null" freq="1"/>
	<inductionLoop id="enx2y3nx1y3_1" lane="enx2y3nx1y3_1" pos="-2" file="/dev/null" freq="1"/>
	<inductionLoop id="enx1y1nx1y2_1" lane="enx1y1nx1y2_1" pos="-2" file="/dev/null" freq="1"/>
	<inductionLoop id="enx1y3nx1y2_1" lane="enx1y3nx1y2_1" pos="-2" file="/dev/null" freq="1"/>
	<inductionLoop id="enx0y2nx1y2_1" lane="enx0y2nx1y2_1" pos="-2" file="/dev/null" freq="1"/>
	<inductionLoop id="enx2y2nx1y2_1" lane="enx2y2nx1y2_1" pos="-2" file="/dev/null" freq="1"/>
	<inductionLoop id="enx1y3nx1y4_1" lane="enx1y3nx1y4_1" pos="-2" file="/dev/null" freq="1"/>
	<inductionLoop id="enx1y5nx1y4_1" lane="enx1y5nx1y4_1" pos="-2" file="/dev/null" freq="1"/>
	<inductionLoop id="enx0y4nx1y4_1" lane="enx0y4nx1y4_1" pos="-2" file="/dev/null" freq="1"/>
	<inductionLoop id="enx2y4nx1y4_1" lane="enx2y4nx1y4_1" pos="-2" file="/dev/null" freq="1"/>
</additional>