<?xml version="1.0" encoding="UTF-8"?>
<connections xmlns:xsi="http://www.w3.org/2001/XMLSchema-instance"
 xsi:noNamespaceSchemaLocation="http://sumo.sf.net/xsd/connections_file.xsd">
	<connection from="enx4y0nx4y1" to="enx4y1nx3y1" fromLane="1" toLane="1"/>
	<connection from="enx4y0nx4y1" to="enx4y1nx5y1" fromLane="0" toLane="0"/>
	<connection from="enx4y0nx4y1" to="enx4y1nx4y2" fromLane="0" toLane="0"/>
	<connection from="enx4y0nx4y1" to="enx4y1nx4y2" fromLane="0" toLane="1"/>
	<connection from="enx4y2nx4y1" to="enx4y1nx5y1" fromLane="1" toLane="1"/>
	<connection from="enx4y2nx4y1" to="enx4y1nx3y1" fromLane="0" toLane="0"/>
	<connection from="enx4y2nx4y1" to="enx4y1nx4y0" fromLane="0" toLane="0"/>
	<connection from="enx4y2nx4y1" to="enx4y1nx4y0" fromLane="0" toLane="1"/>
	<connection from="enx3y1nx4y1" to="enx4y1nx4y2" fromLane="1" toLane="1"/>
	<connection from="enx3y1nx4y1" to="enx4y1nx4y0" fromLane="0" toLane="0"/>
	<connection from="enx3y1nx4y1" to="enx4y1nx5y1" fromLane="0" toLane="0"/>
	<connection from="enx3y1nx4y1" to="enx4y1nx5y1" fromLane="0" toLane="1"/>
	<connection from="enx5y1nx4y1" to="enx4y1nx4y0" fromLane="1" toLane="1"/>
	<connection from="enx5y1nx4y1" to="enx4y1nx4y2" fromLane="0" toLane="0"/>
	<connection from="enx5y1nx4y1" to="enx4y1nx3y1" fromLane="0" toLane="0"/>
	<connection from="enx5y1nx4y1" to="enx4y1nx3y1" fromLane="0" toLane="1"/>
	<connection from="enx4y1nx4y2" to="enx4y2nx3y2" fromLane="1" toLane="1"/>
	<connection from="enx4y1nx4y2" to="enx4y2nx5y2" fromLane="0" toLane="0"/>
	<connection from="enx4y1nx4y2" to="enx4y2nx4y3" fromLane="0" toLane="0"/>
	<connection from="enx4y1nx4y2" to="enx4y2nx4y3" fromLane="0" toLane="1"/>
	<connection from="enx4y3nx4y2" to="enx4y2nx5y2" fromLane="1" toLane="1"/>
	<connection from="enx4y3nx4y2" to="enx4y2nx3y2" fromLane="0" toLane="0"/>
	<connection from="enx4y3nx4y2" to="enx4y2nx4y1" fromLane="0" toLane="0"/>
	<connection from="enx4y3nx4y2" to="enx4y2nx4y1" fromLane="0" toLane="1"/>
	<connection from="enx3y2nx4y2" to="enx4y2nx4y3" fromLane="1" toLane="1"/>
	<connection from="enx3y2nx4y2" to="enx4y2nx4y1" fromLane="0" toLane="0"/>
	<connection from="enx3y2nx4y2" to="enx4y2nx5y2" fromLane="0" toLane="0"/>
	<connection from="enx3y2nx4y2" to="enx4y2nx5y2" fromLane="0" toLane="1"/>
	<connection from="enx5y2nx4y2" to="enx4y2nx4y1" fromLane="1" toLane="1"/>
	<connection from="enx5y2nx4y2" to="enx4y2nx4y3" fromLane="0" toLane="0"/>
	<connection from="enx5y2nx4y2" to="enx4y2nx3y2" fromLane="0" toLane="0"/>
	<connection from="enx5y2nx4y2" to="enx4y2nx3y2" fromLane="0" toLane="1"/>
	<connection from="enx4y2nx4y3" to="enx4y3nx3y3" fromLane="1" toLane="1"/>
	<connection from="enx4y2nx4y3" to="enx4y3nx5y3" fromLane="0" toLane="0"/>
	<connection from="enx4y2nx4y3" to="enx4y3nx4y4" fromLane="0" toLane="0"/>
	<connection from="enx4y2nx4y3" to="enx4y3nx4y4" fromLane="0" toLane="1"/>
	<connection from="enx4y4nx4y3" to="enx4y3nx5y3" fromLane="1" toLane="1"/>
	<connection from="enx4y4nx4y3" to="enx4y3nx3y3" fromLane="0" toLane="0"/>
	<connection from="enx4y4nx4y3" to="enx4y3nx4y2" fromLane="0" toLane="0"/>
	<connection from="enx4y4nx4y3" to="enx4y3nx4y2" fromLane="0" toLane="1"/>
	<connection from="enx3y3nx4y3" to="enx4y3nx4y4" fromLane="1" toLane="1"/>
	<connection from="enx3y3nx4y3" to="enx4y3nx4y2" fromLane="0" toLane="0"/>
	<connection from="enx3y3nx4y3" to="enx4y3nx5y3" fromLane="0" toLane="0"/>
	<connection from="enx3y3nx4y3" to="enx4y3nx5y3" fromLane="0" toLane="1"/>
	<connection from="enx5y3nx4y3" to="enx4y3nx4y2" fromLane="1" toLane="1"/>
	<connection from="enx5y3nx4y3" to="enx4y3nx4y4" fromLane="0" toLane="0"/>
	<connection from="enx5y3nx4y3" to="enx4y3nx3y3" fromLane="0" toLane="0"/>
	<connection from="enx5y3nx4y3" to="enx4y3nx3y3" fromLane="0" toLane="1"/>
	<connection from="enx4y3nx4y4" to="enx4y4nx3y4" fromLane="1" toLane="1"/>
	<connection from="enx4y3nx4y4" to="enx4y4nx5y4" fromLane="0" toLane="0"/>
	<connection from="enx4y3nx4y4" to="enx4y4nx4y5" fromLane="0" toLane="0"/>
	<connection from="enx4y3nx4y4" to="enx4y4nx4y5" fromLane="0" toLane="1"/>
	<connection from="enx4y5nx4y4" to="enx4y4nx5y4" fromLane="1" toLane="1"/>
	<connection from="enx4y5nx4y4" to="enx4y4nx3y4" fromLane="0" toLane="0"/>
	<connection from="enx4y5nx4y4" to="enx4y4nx4y3" fromLane="0" toLane="0"/>
	<connection from="enx4y5nx4y4" to="enx4y4nx4y3" fromLane="0" toLane="1"/>
	<connection from="enx3y4nx4y4" to="enx4y4nx4y5" fromLane="1" toLane="1"/>
	<connection from="enx3y4nx4y4" to="enx4y4nx4y3" fromLane="0" toLane="0"/>
	<connection from="enx3y4nx4y4" to="enx4y4nx5y4" fromLane="0" toLane="0"/>
	<connection from="enx3y4nx4y4" to="enx4y4nx5y4" fromLane="0" toLane="1"/>
	<connection from="enx5y4nx4y4" to="enx4y4nx4y3" fromLane="1" toLane="1"/>
	<connection from="enx5y4nx4y4" to="enx4y4nx4y5" fromLane="0" toLane="0"/>
	<connection from="enx5y4nx4y4" to="enx4y4nx3y4" fromLane="0" toLane="0"/>
	<connection from="enx5y4nx4y4" to="enx4y4nx3y4" fromLane="0" toLane="1"/>
	<connection from="enx3y3nx3y4" to="enx3y4nx2y4" fromLane="1" toLane="1"/>
	<connection from="enx3y3nx3y4" to="enx3y4nx4y4" fromLane="0" toLane="0"/>
	<connection from="enx3y3nx3y4" to="enx3y4nx3y5" fromLane="0" toLane="0"/>
	<connection from="enx3y3nx3y4" to="enx3y4nx3y5" fromLane="0" toLane="1"/>
	<connection from="enx3y5nx3y4" to="enx3y4nx4y4" fromLane="1" toLane="1"/>
	<connection from="enx3y5nx3y4" to="enx3y4nx2y4" fromLane="0" toLane="0"/>
	<connection from="enx3y5nx3y4" to="enx3y4nx3y3" fromLane="0" toLane="0"/>
	<connection from="enx3y5nx3y4" to="enx3y4nx3y3" fromLane="0" toLane="1"/>
	<connection from="enx2y4nx3y4" to="enx3y4nx3y5" fromLane="1" toLane="1"/>
	<connection from="enx2y4nx3y4" to="enx3y4nx3y3" fromLane="0" toLane="0"/>
	<connection from="enx2y4nx3y4" to="enx3y4nx4y4" fromLane="0" toLane="0"/>
	<connection from="enx2y4nx3y4" to="enx3y4nx4y4" fromLane="0" toLane="1"/>
	<connection from="enx4y4nx3y4" to="enx3y4nx3y3" fromLane="1" toLane="1"/>
	<connection from="enx4y4nx3y4" to="enx3y4nx3y5" fromLane="0" toLane="0"/>
	<connection from="enx4y4nx3y4" to="enx3y4nx2y4" fromLane="0" toLane="0"/>
	<connection from="enx4y4nx3y4" to="enx3y4nx2y4" fromLane="0" toLane="1"/>
	<connection from="enx3y2nx3y3" to="enx3y3nx2y3" fromLane="1" toLane="1"/>
	<connection from="enx3y2nx3y3" to="enx3y3nx4y3" fromLane="0" toLane="0"/>
	<connection from="enx3y2nx3y3" to="enx3y3nx3y4" fromLane="0" toLane="0"/>
	<connection from="enx3y2nx3y3" to="enx3y3nx3y4" fromLane="0" toLane="1"/>
	<connection from="enx3y4nx3y3" to="enx3y3nx4y3" fromLane="1" toLane="1"/>
	<connection from="enx3y4nx3y3" to="enx3y3nx2y3" fromLane="0" toLane="0"/>
	<connection from="enx3y4nx3y3" to="enx3y3nx3y2" fromLane="0" toLane="0"/>
	<connection from="enx3y4nx3y3" to="enx3y3nx3y2" fromLane="0" toLane="1"/>
	<connection from="enx2y3nx3y3" to="enx3y3nx3y4" fromLane="1" toLane="1"/>
	<connection from="enx2y3nx3y3" to="enx3y3nx3y2" fromLane="0" toLane="0"/>
	<connection from="enx2y3nx3y3" to="enx3y3nx4y3" fromLane="0" toLane="0"/>
	<connection from="enx2y3nx3y3" to="enx3y3nx4y3" fromLane="0" toLane="1"/>
	<connection from="enx4y3nx3y3" to="enx3y3nx3y2" fromLane="1" toLane="1"/>
	<connection from="enx4y3nx3y3" to="enx3y3nx3y4" fromLane="0" toLane="0"/>
	<connection from="enx4y3nx3y3" to="enx3y3nx2y3" fromLane="0" toLane="0"/>
	<connection from="enx4y3nx3y3" to="enx3y3nx2y3" fromLane="0" toLane="1"/>
	<connection from="enx3y1nx3y2" to="enx3y2nx2y2" fromLane="1" toLane="1"/>
	<connection from="enx3y1nx3y2" to="enx3y2nx4y2" fromLane="0" toLane="0"/>
	<connection from="enx3y1nx3y2" to="enx3y2nx3y3" fromLane="0" toLane="0"/>
	<connection from="enx3y1nx3y2" to="enx3y2nx3y3" fromLane="0" toLane="1"/>
	<connection from="enx3y3nx3y2" to="enx3y2nx4y2" fromLane="1" toLane="1"/>
	<connection from="enx3y3nx3y2" to="enx3y2nx2y2" fromLane="0" toLane="0"/>
	<connection from="enx3y3nx3y2" to="enx3y2nx3y1" fromLane="0" toLane="0"/>
	<connection from="enx3y3nx3y2" to="enx3y2nx3y1" fromLane="0" toLane="1"/>
	<connection from="enx2y2nx3y2" to="enx3y2nx3y3" fromLane="1" toLane="1"/>
	<connection from="enx2y2nx3y2" to="enx3y2nx3y1" fromLane="0" toLane="0"/>
	<connection from="enx2y2nx3y2" to="enx3y2nx4y2" fromLane="0" toLane="0"/>
	<connection from="enx2y2nx3y2" to="enx3y2nx4y2" fromLane="0" toLane="1"/>
	<connection from="enx4y2nx3y2" to="enx3y2nx3y1" fromLane="1" toLane="1"/>
	<connection from="enx4y2nx3y2" to="enx3y2nx3y3" fromLane="0" toLane="0"/>
	<connection from="enx4y2nx3y2" to="enx3y2nx2y2" fromLane="0" toLane="0"/>
	<connection from="enx4y2nx3y2" to="enx3y2nx2y2" fromLane="0" toLane="1"/>
	<connection from="enx3y0nx3y1" to="enx3y1nx2y1" fromLane="1" toLane="1"/>
	<connection from="enx3y0nx3y1" to="enx3y1nx4y1" fromLane="0" toLane="0"/>
	<connection from="enx3y0nx3y1" to="enx3y1nx3y2" fromLane="0" toLane="0"/>
	<connection from="enx3y0nx3y1" to="enx3y1nx3y2" fromLane="0" toLane="1"/>
	<connection from="enx3y2nx3y1" to="enx3y1nx4y1" fromLane="1" toLane="1"/>
	<connection from="enx3y2nx3y1" to="enx3y1nx2y1" fromLane="0" toLane="0"/>
	<connection from="enx3y2nx3y1" to="enx3y1nx3y0" fromLane="0" toLane="0"/>
	<connection from="enx3y2nx3y1" to="enx3y1nx3y0" fromLane="0" toLane="1"/>
	<connection from="enx2y1nx3y1" to="enx3y1nx3y2" fromLane="1" toLane="1"/>
	<connection from="enx2y1nx3y1" to="enx3y1nx3y0" fromLane="0" toLane="0"/>
	<connection from="enx2y1nx3y1" to="enx3y1nx4y1" fromLane="0" toLane="0"/>
	<connection from="enx2y1nx3y1" to="enx3y1nx4y1" fromLane="0" toLane="1"/>
	<connection from="enx4y1nx3y1" to="enx3y1nx3y0" fromLane="1" toLane="1"/>
	<connection from="enx4y1nx3y1" to="enx3y1nx3y2" fromLane="0" toLane="0"/>
	<connection from="enx4y1nx3y1" to="enx3y1nx2y1" fromLane="0" toLane="0"/>
	<connection from="enx4y1nx3y1" to="enx3y1nx2y1" fromLane="0" toLane="1"/>
	<connection from="enx2y1nx2y2" to="enx2y2nx1y2" fromLane="1" toLane="1"/>
	<connection from="enx2y1nx2y2" to="enx2y2nx3y2" fromLane="0" toLane="0"/>
	<connection from="enx2y1nx2y2" to="enx2y2nx2y3" fromLane="0" toLane="0"/>
	<connection from="enx2y1nx2y2" to="enx2y2nx2y3" fromLane="0" toLane="1"/>
	<connection from="enx2y3nx2y2" to="enx2y2nx3y2" fromLane="1" toLane="1"/>
	<connection from="enx2y3nx2y2" to="enx2y2nx1y2" fromLane="0" toLane="0"/>
	<connection from="enx2y3nx2y2" to="enx2y2nx2y1" fromLane="0" toLane="0"/>
	<connection from="enx2y3nx2y2" to="enx2y2nx2y1" fromLane="0" toLane="1"/>
	<connection from="enx1y2nx2y2" to="enx2y2nx2y3" fromLane="1" toLane="1"/>
	<connection from="enx1y2nx2y2" to="enx2y2nx2y1" fromLane="0" toLane="0"/>
	<connection from="enx1y2nx2y2" to="enx2y2nx3y2" fromLane="0" toLane="0"/>
	<connection from="enx1y2nx2y2" to="enx2y2nx3y2" fromLane="0" toLane="1"/>
	<connection from="enx3y2nx2y2" to="enx2y2nx2y1" fromLane="1" toLane="1"/>
	<connection from="enx3y2nx2y2" to="enx2y2nx2y3" fromLane="0" toLane="0"/>
	<connection from="enx3y2nx2y2" to="enx2y2nx1y2" fromLane="0" toLane="0"/>
	<connection from="enx3y2nx2y2" to="enx2y2nx1y2" fromLane="0" toLane="1"/>
	<connection from="enx2y2nx2y3" to="enx2y3nx1y3" fromLane="1" toLane="1"/>
	<connection from="enx2y2nx2y3" to="enx2y3nx3y3" fromLane="0" toLane="0"/>
	<connection from="enx2y2nx2y3" to="enx2y3nx2y4" fromLane="0" toLane="0"/>
	<connection from="enx2y2nx2y3" to="enx2y3nx2y4" fromLane="0" toLane="1"/>
	<connection from="enx2y4nx2y3" to="enx2y3nx3y3" fromLane="1" toLane="1"/>
	<connection from="enx2y4nx2y3" to="enx2y3nx1y3" fromLane="0" toLane="0"/>
	<connection from="enx2y4nx2y3" to="enx2y3nx2y2" fromLane="0" toLane="0"/>
	<connection from="enx2y4nx2y3" to="enx2y3nx2y2" fromLane="0" toLane="1"/>
	<connection from="enx1y3nx2y3" to="enx2y3nx2y4" fromLane="1" toLane="1"/>
	<connection from="enx1y3nx2y3" to="enx2y3nx2y2" fromLane="0" toLane="0"/>
	<connection from="enx1y3nx2y3" to="enx2y3nx3y3" fromLane="0" toLane="0"/>
	<connection from="enx1y3nx2y3" to="enx2y3nx3y3" fromLane="0" toLane="1"/>
	<connection from="enx3y3nx2y3" to="enx2y3nx2y2" fromLane="1" toLane="1"/>
	<connection from="enx3y3nx2y3" to="enx2y3nx2y4" fromLane="0" toLane="0"/>
	<connection from="enx3y3nx2y3" to="enx2y3nx1y3" fromLane="0" toLane="0"/>
	<connection from="enx3y3nx2y3" to="enx2y3nx1y3" fromLane="0" toLane="1"/>
	<connection from="enx2y0nx2y1" to="enx2y1nx1y1" fromLane="1" toLane="1"/>
	<connection from="enx2y0nx2y1" to="enx2y1nx3y1" fromLane="0" toLane="0"/>
	<connection from="enx2y0nx2y1" to="enx2y1nx2y2" fromLane="0" toLane="0"/>
	<connection from="enx2y0nx2y1" to="enx2y1nx2y2" fromLane="0" toLane="1"/>
	<connection from="enx2y2nx2y1" to="enx2y1nx3y1" fromLane="1" toLane="1"/>
	<connection from="enx2y2nx2y1" to="enx2y1nx1y1" fromLane="0" toLane="0"/>
	<connection from="enx2y2nx2y1" to="enx2y1nx2y0" fromLane="0" toLane="0"/>
	<connection from="enx2y2nx2y1" to="enx2y1nx2y0" fromLane="0" toLane="1"/>
	<connection from="enx1y1nx2y1" to="enx2y1nx2y2" fromLane="1" toLane="1"/>
	<connection from="enx1y1nx2y1" to="enx2y1nx2y0" fromLane="0" toLane="0"/>
	<connection from="enx1y1nx2y1" to="enx2y1nx3y1" fromLane="0" toLane="0"/>
	<connection from="enx1y1nx2y1" to="enx2y1nx3y1" fromLane="0" toLane="1"/>
	<connection from="enx3y1nx2y1" to="enx2y1nx2y0" fromLane="1" toLane="1"/>
	<connection from="enx3y1nx2y1" to="enx2y1nx2y2" fromLane="0" toLane="0"/>
	<connection from="enx3y1nx2y1" to="enx2y1nx1y1" fromLane="0" toLane="0"/>
	<connection from="enx3y1nx2y1" to="enx2y1nx1y1" fromLane="0" toLane="1"/>
	<connection from="enx2y3nx2y4" to="enx2y4nx1y4" fromLane="1" toLane="1"/>
	<connection from="enx2y3nx2y4" to="enx2y4nx3y4" fromLane="0" toLane="0"/>
	<connection from="enx2y3nx2y4" to="enx2y4nx2y5" fromLane="0" toLane="0"/>
	<connection from="enx2y3nx2y4" to="enx2y4nx2y5" fromLane="0" toLane="1"/>
	<connection from="enx2y5nx2y4" to="enx2y4nx3y4" fromLane="1" toLane="1"/>
	<connection from="enx2y5nx2y4" to="enx2y4nx1y4" fromLane="0" toLane="0"/>
	<connection from="enx2y5nx2y4" to="enx2y4nx2y3" fromLane="0" toLane="0"/>
	<connection from="enx2y5nx2y4" to="enx2y4nx2y3" fromLane="0" toLane="1"/>
	<connection from="enx1y4nx2y4" to="enx2y4nx2y5" fromLane="1" toLane="1"/>
	<connection from="enx1y4nx2y4" to="enx2y4nx2y3" fromLane="0" toLane="0"/>
	<connection from="enx1y4nx2y4" to="enx2y4nx3y4" fromLane="0" toLane="0"/>
	<connection from="enx1y4nx2y4" to="enx2y4nx3y4" fromLane="0" toLane="1"/>
	<connection from="enx3y4nx2y4" to="enx2y4nx2y3" fromLane="1" toLane="1"/>
	<connection from="enx3y4nx2y4" to="enx2y4nx2y5" fromLane="0" toLane="0"/>
	<connection from="enx3y4nx2y4" to="enx2y4nx1y4" fromLane="0" toLane="0"/>
	<connection from="enx3y4nx2y4" to="enx2y4nx1y4" fromLane="0" toLane="1"/>
	<connection from="enx1y0nx1y1" to="enx1y1nx0y1" fromLane="1" toLane="1"/>
	<connection from="enx1y0nx1y1" to="enx1y1nx2y1" fromLane="0" toLane="0"/>
	<connection from="enx1y0nx1y1" to="enx1y1nx1y2" fromLane="0" toLane="0"/>
	<connection from="enx1y0nx1y1" to="enx1y1nx1y2" fromLane="0" toLane="1"/>
	<connection from="enx1y2nx1y1" to="enx1y1nx2y1" fromLane="1" toLane="1"/>
	<connection from="enx1y2nx1y1" to="enx1y1nx0y1" fromLane="0" toLane="0"/>
	<connection from="enx1y2nx1y1" to="enx1y1nx1y0" fromLane="0" toLane="0"/>
	<connection from="enx1y2nx1y1" to="enx1y1nx1y0" fromLane="0" toLane="1"/>
	<connection from="enx0y1nx1y1" to="enx1y1nx1y2" fromLane="1" toLane="1"/>
	<connection from="enx0y1nx1y1" to="enx1y1nx1y0" fromLane="0" toLane="0"/>
	<connection from="enx0y1nx1y1" to="enx1y1nx2y1" fromLane="0" toLane="0"/>
	<connection from="enx0y1nx1y1" to="enx1y1nx2y1" fromLane="0" toLane="1"/>
	<connection from="enx2y1nx1y1" to="enx1y1nx1y0" fromLane="1" toLane="1"/>
	<connection from="enx2y1nx1y1" to="enx1y1nx1y2" fromLane="0" toLane="0"/>
	<connection from="enx2y1nx1y1" to="enx1y1nx0y1" fromLane="0" toLane="0"/>
	<connection from="enx2y1nx1y1" to="enx1y1nx0y1" fromLane="0" toLane="1"/>
	<connection from="enx1y2nx1y3" to="enx1y3nx0y3" fromLane="1" toLane="1"/>
	<connection from="enx1y2nx1y3" to="enx1y3nx2y3" fromLane="0" toLane="0"/>
	<connection from="enx1y2nx1y3" to="enx1y3nx1y4" fromLane="0" toLane="0"/>
	<connection from="enx1y2nx1y3" to="enx1y3nx1y4" fromLane="0" toLane="1"/>
	<connection from="enx1y4nx1y3" to="enx1y3nx2y3" fromLane="1" toLane="1"/>
	<connection from="enx1y4nx1y3" to="enx1y3nx0y3" fromLane="0" toLane="0"/>
	<connection from="enx1y4nx1y3" to="enx1y3nx1y2" fromLane="0" toLane="0"/>
	<connection from="enx1y4nx1y3" to="enx1y3nx1y2" fromLane="0" toLane="1"/>
	<connection from="enx0y3nx1y3" to="enx1y3nx1y4" fromLane="1" toLane="1"/>
	<connection from="enx0y3nx1y3" to="enx1y3nx1y2" fromLane="0" toLane="0"/>
	<connection from="enx0y3nx1y3" to="enx1y3nx2y3" fromLane="0" toLane="0"/>
	<connection from="enx0y3nx1y3" to="enx1y3nx2y3" fromLane="0" toLane="1"/>
	<connection from="enx2y3nx1y3" to="enx1y3nx1y2" fromLane="1" toLane="1"/>
	<connection from="enx2y3nx1y3" to="enx1y3nx1y4" fromLane="0" toLane="0"/>
	<connection from="enx2y3nx1y3" to="enx1y3nx0y3" fromLane="0" toLane="0"/>
	<connection from="enx2y3nx1y3" to="enx1y3nx0y3" fromLane="0" toLane="1"/>
	<connection from="enx1y1nx1y2" to="enx1y2nx0y2" fromLane="1" toLane="1"/>
	<connection from="enx1y1nx1y2" to="enx1y2nx2y2" fromLane="0" toLane="0"/>
	<connection from="enx1y1nx1y2" to="enx1y2nx1y3" fromLane="0" toLane="0"/>
	<connection from="enx1y1nx1y2" to="enx1y2nx1y3" fromLane="0" toLane="1"/>
	<connection from="enx1y3nx1y2" to="enx1y2nx2y2" fromLane="1" toLane="1"/>
	<connection from="enx1y3nx1y2" to="enx1y2nx0y2" fromLane="0" toLane="0"/>
	<connection from="enx1y3nx1y2" to="enx1y2nx1y1" fromLane="0" toLane="0"/>
	<connection from="enx1y3nx1y2" to="enx1y2nx1y1" fromLane="0" toLane="1"/>
	<connection from="enx0y2nx1y2" to="enx1y2nx1y3" fromLane="1" toLane="1"/>
	<connection from="enx0y2nx1y2" to="enx1y2nx1y1" fromLane="0" toLane="0"/>
	<connection from="enx0y2nx1y2" to="enx1y2nx2y2" fromLane="0" toLane="0"/>
	<connection from="enx0y2nx1y2" to="enx1y2nx2y2" fromLane="0" toLane="1"/>
	<connection from="enx2y2nx1y2" to="enx1y2nx1y1" fromLane="1" toLane="1"/>
	<connection from="enx2y2nx1y2" to="enx1y2nx1y3" fromLane="0" toLane="0"/>
	<connection from="enx2y2nx1y2" to="enx1y2nx0y2" fromLane="0" toLane="0"/>
	<connection from="enx2y2nx1y2" to="enx1y2nx0y2" fromLane="0" toLane="1"/>
	<connection from="enx1y3nx1y4" to="enx1y4nx0y4" fromLane="1" toLane="1"/>
	<connection from="enx1y3nx1y4" to="enx1y4nx2y4" fromLane="0" toLane="0"/>
	<connection from="enx1y3nx1y4" to="enx1y4nx1y5" fromLane="0" toLane="0"/>
	<connection from="enx1y3nx1y4" to="enx1y4nx1y5" fromLane="0" toLane="1"/>
	<connection from="enx1y5nx1y4" to="enx1y4nx2y4" fromLane="1" toLane="1"/>
	<connection from="enx1y5nx1y4" to="enx1y4nx0y4" fromLane="0" toLane="0"/>
	<connection from="enx1y5nx1y4" to="enx1y4nx1y3" fromLane="0" toLane="0"/>
	<connection from="enx1y5nx1y4" to="enx1y4nx1y3" fromLane="0" toLane="1"/>
	<connection from="enx0y4nx1y4" to="enx1y4nx1y5" fromLane="1" toLane="1"/>
	<connection from="enx0y4nx1y4" to="enx1y4nx1y3" fromLane="0" toLane="0"/>
	<connection from="enx0y4nx1y4" to="enx1y4nx2y4" fromLane="0" toLane="0"/>
	<connection from="enx0y4nx1y4" to="enx1y4nx2y4" fromLane="0" toLane="1"/>
	<connection from="enx2y4nx1y4" to="enx1y4nx1y3" fromLane="1" toLane="1"/>
	<connection from="enx2y4nx1y4" to="enx1y4nx1y5" fromLane="0" toLane="0"/>
	<connection from="enx2y4nx1y4" to="enx1y4nx0y4" fromLane="0" toLane="0"/>
	<connection from="enx2y4nx1y4" to="enx1y4nx0y4" fromLane="0" toLane="1"/>
</connections>