<additional>
 <tlLogic id="nx4y1" programID="p1" offset="13" type="static">
      <phase duration="15" state="grrGgrrrgrrGgrrr"/>
      <phase duration="15" state="gGGGgrrrgrrrgrrr"/>
      <phase duration="15" state="grrrgrrrgGGGgrrr"/>
      <phase duration="46" state="gGGggrrrgGGggrrr"/>
      <phase duration="4" state="gyyygrrrgyyygrrr"/>
      <phase duration="11" state="grrrgrrGgrrrgrrG"/>
      <phase duration="11" state="grrrgGGGgrrrgrrr"/>
      <phase duration="11" state="grrrgrrrgrrrgGGG"/>
      <phase duration="40" state="grrrgGGggrrrgGGg"/>
      <phase duration="4" state="grrrgyyygrrrgyyy"/>
 </tlLogic>
 <tlLogic id="nx4y2" programID="p1" offset="45" type="static">
      <phase duration="13" state="grrGgrrrgrrGgrrr"/>
      <phase duration="13" state="gGGGgrrrgrrrgrrr"/>
      <phase duration="13" state="grrrgrrrgGGGgrrr"/>
      <phase duration="46" state="gGGggrrrgGGggrrr"/>
      <phase duration="4" state="gyyygrrrgyyygrrr"/>
      <phase duration="10" state="grrrgrrGgrrrgrrG"/>
      <phase duration="10" state="grrrgGGGgrrrgrrr"/>
      <phase duration="10" state="grrrgrrrgrrrgGGG"/>
      <phase duration="30" state="grrrgGGggrrrgGGg"/>
      <phase duration="4" state="grrrgyyygrrrgyyy"/>
 </tlLogic>
 <tlLogic id="nx4y3" programID="p1" offset="84" type="static">
      <phase duration="12" state="grrGgrrrgrrGgrrr"/>
      <phase duration="12" state="gGGGgrrrgrrrgrrr"/>
      <phase duration="12" state="grrrgrrrgGGGgrrr"/>
      <phase duration="46" state="gGGggrrrgGGggrrr"/>
      <phase duration="4" state="gyyygrrrgyyygrrr"/>
      <phase duration="10" state="grrrgrrGgrrrgrrG"/>
      <phase duration="10" state="grrrgGGGgrrrgrrr"/>
      <phase duration="10" state="grrrgrrrgrrrgGGG"/>
      <phase duration="39" state="grrrgGGggrrrgGGg"/>
      <phase duration="4" state="grrrgyyygrrrgyyy"/>
 </tlLogic>
 <tlLogic id="nx4y4" programID="p1" offset="72" type="static">
      <phase duration="11" state="grrGgrrrgrrGgrrr"/>
      <phase duration="11" state="gGGGgrrrgrrrgrrr"/>
      <phase duration="11" state="grrrgrrrgGGGgrrr"/>
      <phase duration="49" state="gGGggrrrgGGggrrr"/>
      <phase duration="4" state="gyyygrrrgyyygrrr"/>
      <phase duration="15" state="grrrgrrGgrrrgrrG"/>
      <phase duration="15" state="grrrgGGGgrrrgrrr"/>
      <phase duration="15" state="grrrgrrrgrrrgGGG"/>
      <phase duration="30" state="grrrgGGggrrrgGGg"/>
      <phase duration="4" state="grrrgyyygrrrgyyy"/>
 </tlLogic>
 <tlLogic id="nx3y4" programID="p1" offset="2" type="static">
      <phase duration="13" state="grrGgrrrgrrGgrrr"/>
      <phase duration="13" state="gGGGgrrrgrrrgrrr"/>
      <phase duration="13" state="grrrgrrrgGGGgrrr"/>
      <phase duration="49" state="gGGggrrrgGGggrrr"/>
      <phase duration="4" state="gyyygrrrgyyygrrr"/>
      <phase duration="12" state="grrrgrrGgrrrgrrG"/>
      <phase duration="12" state="grrrgGGGgrrrgrrr"/>
      <phase duration="12" state="grrrgrrrgrrrgGGG"/>
      <phase duration="34" state="grrrgGGggrrrgGGg"/>
      <phase duration="4" state="grrrgyyygrrrgyyy"/>
 </tlLogic>
 <tlLogic id="nx3y3" programID="p1" offset="42" type="static">
      <phase duration="10" state="grrGgrrrgrrGgrrr"/>
      <phase duration="10" state="gGGGgrrrgrrrgrrr"/>
      <phase duration="10" state="grrrgrrrgGGGgrrr"/>
      <phase duration="34" state="gGGggrrrgGGggrrr"/>
      <phase duration="4" state="gyyygrrrgyyygrrr"/>
      <phase duration="12" state="grrrgrrGgrrrgrrG"/>
      <phase duration="12" state="grrrgGGGgrrrgrrr"/>
      <phase duration="12" state="grrrgrrrgrrrgGGG"/>
      <phase duration="40" state="grrrgGGggrrrgGGg"/>
      <phase duration="4" state="grrrgyyygrrrgyyy"/>
 </tlLogic>
 <tlLogic id="nx3y2" programID="p1" offset="23" type="static">
      <phase duration="11" state="grrGgrrrgrrGgrrr"/>
      <phase duration="11" state="gGGGgrrrgrrrgrrr"/>
      <phase duration="11" state="grrrgrrrgGGGgrrr"/>
      <phase duration="34" state="gGGggrrrgGGggrrr"/>
      <phase duration="4" state="gyyygrrrgyyygrrr"/>
      <phase duration="12" state="grrrgrrGgrrrgrrG"/>
      <phase duration="12" state="grrrgGGGgrrrgrrr"/>
      <phase duration="12" state="grrrgrrrgrrrgGGG"/>
      <phase duration="36" state="grrrgGGggrrrgGGg"/>
      <phase duration="4" state="grrrgyyygrrrgyyy"/>
 </tlLogic>
 <tlLogic id="nx3y1" programID="p1" offset="2" type="static">
      <phase duration="15" state="grrGgrrrgrrGgrrr"/>
      <phase duration="15" state="gGGGgrrrgrrrgrrr"/>
      <phase duration="15" state="grrrgrrrgGGGgrrr"/>
      <phase duration="41" state="gGGggrrrgGGggrrr"/>
      <phase duration="4" state="gyyygrrrgyyygrrr"/>
      <phase duration="13" state="grrrgrrGgrrrgrrG"/>
      <phase duration="13" state="grrrgGGGgrrrgrrr"/>
      <phase duration="13" state="grrrgrrrgrrrgGGG"/>
      <phase duration="33" state="grrrgGGggrrrgGGg"/>
      <phase duration="4" state="grrrgyyygrrrgyyy"/>
 </tlLogic>
 <tlLogic id="nx2y2" programID="p1" offset="100" type="static">
      <phase duration="15" state="grrGgrrrgrrGgrrr"/>
      <phase duration="15" state="gGGGgrrrgrrrgrrr"/>
      <phase duration="15" state="grrrgrrrgGGGgrrr"/>
      <phase duration="32" state="gGGggrrrgGGggrrr"/>
      <phase duration="4" state="gyyygrrrgyyygrrr"/>
      <phase duration="11" state="grrrgrrGgrrrgrrG"/>
      <phase duration="11" state="grrrgGGGgrrrgrrr"/>
      <phase duration="11" state="grrrgrrrgrrrgGGG"/>
      <phase duration="45" state="grrrgGGggrrrgGGg"/>
      <phase duration="4" state="grrrgyyygrrrgyyy"/>
 </tlLogic>
 <tlLogic id="nx2y3" programID="p1" offset="71" type="static">
      <phase duration="15" state="grrGgrrrgrrGgrrr"/>
      <phase duration="15" state="gGGGgrrrgrrrgrrr"/>
      <phase duration="15" state="grrrgrrrgGGGgrrr"/>
      <phase duration="38" state="gGGggrrrgGGggrrr"/>
      <phase duration="4" state="gyyygrrrgyyygrrr"/>
      <phase duration="14" state="grrrgrrGgrrrgrrG"/>
      <phase duration="14" state="grrrgGGGgrrrgrrr"/>
      <phase duration="14" state="grrrgrrrgrrrgGGG"/>
      <phase duration="44" state="grrrgGGggrrrgGGg"/>
      <phase duration="4" state="grrrgyyygrrrgyyy"/>
 </tlLogic>
 <tlLogic id="nx2y1" programID="p1" offset="30" type="static">
      <phase duration="13" state="grrGgrrrgrrGgrrr"/>
      <phase duration="13" state="gGGGgrrrgrrrgrrr"/>
      <phase duration="13" state="grrrgrrrgGGGgrrr"/>
      <phase duration="48" state="gGGggrrrgGGggrrr"/>
      <phase duration="4" state="gyyygrrrgyyygrrr"/>
      <phase duration="15" state="grrrgrrGgrrrgrrG"/>
      <phase duration="15" state="grrrgGGGgrrrgrrr"/>
      <phase duration="15" state="grrrgrrrgrrrgGGG"/>
      <phase duration="40" state="grrrgGGggrrrgGGg"/>
      <phase duration="4" state="grrrgyyygrrrgyyy"/>
 </tlLogic>
 <tlLogic id="nx2y4" programID="p1" offset="59" type="static">
      <phase duration="10" state="grrGgrrrgrrGgrrr"/>
      <phase duration="10" state="gGGGgrrrgrrrgrrr"/>
      <phase duration="10" state="grrrgrrrgGGGgrrr"/>
      <phase duration="35" state="gGGggrrrgGGggrrr"/>
      <phase duration="4" state="gyyygrrrgyyygrrr"/>
      <phase duration="14" state="grrrgrrGgrrrgrrG"/>
      <phase duration="14" state="grrrgGGGgrrrgrrr"/>
      <phase duration="14" state="grrrgrrrgrrrgGGG"/>
      <phase duration="38" state="grrrgGGggrrrgGGg"/>
      <phase duration="4" state="grrrgyyygrrrgyyy"/>
 </tlLogic>
 <tlLogic id="nx1y1" programID="p1" offset="17" type="static">
      <phase duration="13" state="grrGgrrrgrrGgrrr"/>
      <phase duration="13" state="gGGGgrrrgrrrgrrr"/>
      <phase duration="13" state="grrrgrrrgGGGgrrr"/>
      <phase duration="44" state="gGGggrrrgGGggrrr"/>
      <phase duration="4" state="gyyygrrrgyyygrrr"/>
      <phase duration="14" state="grrrgrrGgrrrgrrG"/>
      <phase duration="14" state="grrrgGGGgrrrgrrr"/>
      <phase duration="14" state="grrrgrrrgrrrgGGG"/>
      <phase duration="37" state="grrrgGGggrrrgGGg"/>
      <phase duration="4" state="grrrgyyygrrrgyyy"/>
 </tlLogic>
 <tlLogic id="nx1y3" programID="p1" offset="44" type="static">
      <phase duration="13" state="grrGgrrrgrrGgrrr"/>
      <phase duration="13" state="gGGGgrrrgrrrgrrr"/>
      <phase duration="13" state="grrrgrrrgGGGgrrr"/>
      <phase duration="46" state="gGGggrrrgGGggrrr"/>
      <phase duration="4" state="gyyygrrrgyyygrrr"/>
      <phase duration="13" state="grrrgrrGgrrrgrrG"/>
      <phase duration="13" state="grrrgGGGgrrrgrrr"/>
      <phase duration="13" state="grrrgrrrgrrrgGGG"/>
      <phase duration="38" state="grrrgGGggrrrgGGg"/>
      <phase duration="4" state="grrrgyyygrrrgyyy"/>
 </tlLogic>
 <tlLogic id="nx1y2" programID="p1" offset="49" type="static">
      <phase duration="10" state="grrGgrrrgrrGgrrr"/>
      <phase duration="10" state="gGGGgrrrgrrrgrrr"/>
      <phase duration="10" state="grrrgrrrgGGGgrrr"/>
      <phase duration="30" state="gGGggrrrgGGggrrr"/>
      <phase duration="4" state="gyyygrrrgyyygrrr"/>
      <phase duration="14" state="grrrgrrGgrrrgrrG"/>
      <phase duration="14" state="grrrgGGGgrrrgrrr"/>
      <phase duration="14" state="grrrgrrrgrrrgGGG"/>
      <phase duration="50" state="grrrgGGggrrrgGGg"/>
      <phase duration="4" state="grrrgyyygrrrgyyy"/>
 </tlLogic>
 <tlLogic id="nx1y4" programID="p1" offset="59" type="static">
      <phase duration="12" state="grrGgrrrgrrGgrrr"/>
      <phase duration="12" state="gGGGgrrrgrrrgrrr"/>
      <phase duration="12" state="grrrgrrrgGGGgrrr"/>
      <phase duration="33" state="gGGggrrrgGGggrrr"/>
      <phase duration="4" state="gyyygrrrgyyygrrr"/>
      <phase duration="13" state="grrrgrrGgrrrgrrG"/>
      <phase duration="13" state="grrrgGGGgrrrgrrr"/>
      <phase duration="13" state="grrrgrrrgrrrgGGG"/>
      <phase duration="50" state="grrrgGGggrrrgGGg"/>
      <phase duration="4" state="grrrgyyygrrrgyyy"/>
 </tlLogic>
</additional>