<?xml version="1.0" encoding="UTF-8"?>
<types>
   <type id="a" priority="3" numLanes="2" speed="13.89"/>
   <type id="b" priority="2" numLanes="2" speed="13.89"/>
   <type id="c" priority="1" numLanes="2" speed="13.89"/>
</types>
