<?xml version="1.0" encoding="UTF-8"?>
<edges xmlns:xsi="http://www.w3.org/2001/XMLSchema-instance"
 xsi:noNamespaceSchemaLocation="http://sumo.sf.net/xsd/edges_file.xsd">
	<edge id="enx1y0nx1y1" from="nx1y0" to="nx1y1" type="a"/>
	<edge id="enx1y1nx1y0" from="nx1y1" to="nx1y0" type="a"/>
	<edge id="enx2y0nx2y1" from="nx2y0" to="nx2y1" type="a"/>
	<edge id="enx2y1nx2y0" from="nx2y1" to="nx2y0" type="a"/>
	<edge id="enx3y0nx3y1" from="nx3y0" to="nx3y1" type="a"/>
	<edge id="enx3y1nx3y0" from="nx3y1" to="nx3y0" type="a"/>
	<edge id="enx4y0nx4y1" from="nx4y0" to="nx4y1" type="a"/>
	<edge id="enx4y1nx4y0" from="nx4y1" to="nx4y0" type="a"/>
	<edge id="enx1y1nx1y2" from="nx1y1" to="nx1y2" type="a"/>
	<edge id="enx1y2nx1y1" from="nx1y2" to="nx1y1" type="a"/>
	<edge id="enx2y1nx2y2" from="nx2y1" to="nx2y2" type="a"/>
	<edge id="enx2y2nx2y1" from="nx2y2" to="nx2y1" type="a"/>
	<edge id="enx3y1nx3y2" from="nx3y1" to="nx3y2" type="a"/>
	<edge id="enx3y2nx3y1" from="nx3y2" to="nx3y1" type="a"/>
	<edge id="enx4y1nx4y2" from="nx4y1" to="nx4y2" type="a"/>
	<edge id="enx4y2nx4y1" from="nx4y2" to="nx4y1" type="a"/>
	<edge id="enx1y2nx1y3" from="nx1y2" to="nx1y3" type="a"/>
	<edge id="enx1y3nx1y2" from="nx1y3" to="nx1y2" type="a"/>
	<edge id="enx2y2nx2y3" from="nx2y2" to="nx2y3" type="a"/>
	<edge id="enx2y3nx2y2" from="nx2y3" to="nx2y2" type="a"/>
	<edge id="enx3y2nx3y3" from="nx3y2" to="nx3y3" type="a"/>
	<edge id="enx3y3nx3y2" from="nx3y3" to="nx3y2" type="a"/>
	<edge id="enx4y2nx4y3" from="nx4y2" to="nx4y3" type="a"/>
	<edge id="enx4y3nx4y2" from="nx4y3" to="nx4y2" type="a"/>
	<edge id="enx1y3nx1y4" from="nx1y3" to="nx1y4" type="a"/>
	<edge id="enx1y4nx1y3" from="nx1y4" to="nx1y3" type="a"/>
	<edge id="enx2y3nx2y4" from="nx2y3" to="nx2y4" type="a"/>
	<edge id="enx2y4nx2y3" from="nx2y4" to="nx2y3" type="a"/>
	<edge id="enx3y3nx3y4" from="nx3y3" to="nx3y4" type="a"/>
	<edge id="enx3y4nx3y3" from="nx3y4" to="nx3y3" type="a"/>
	<edge id="enx4y3nx4y4" from="nx4y3" to="nx4y4" type="a"/>
	<edge id="enx4y4nx4y3" from="nx4y4" to="nx4y3" type="a"/>
	<edge id="enx1y4nx1y5" from="nx1y4" to="nx1y5" type="a"/>
	<edge id="enx1y5nx1y4" from="nx1y5" to="nx1y4" type="a"/>
	<edge id="enx2y4nx2y5" from="nx2y4" to="nx2y5" type="a"/>
	<edge id="enx2y5nx2y4" from="nx2y5" to="nx2y4" type="a"/>
	<edge id="enx3y4nx3y5" from="nx3y4" to="nx3y5" type="a"/>
	<edge id="enx3y5nx3y4" from="nx3y5" to="nx3y4" type="a"/>
	<edge id="enx4y4nx4y5" from="nx4y4" to="nx4y5" type="a"/>
	<edge id="enx4y5nx4y4" from="nx4y5" to="nx4y4" type="a"/>
	<edge id="enx0y1nx1y1" from="nx0y1" to="nx1y1" type="a"/>
	<edge id="enx1y1nx0y1" from="nx1y1" to="nx0y1" type="a"/>
	<edge id="enx0y2nx1y2" from="nx0y2" to="nx1y2" type="a"/>
	<edge id="enx1y2nx0y2" from="nx1y2" to="nx0y2" type="a"/>
	<edge id="enx0y3nx1y3" from="nx0y3" to="nx1y3" type="a"/>
	<edge id="enx1y3nx0y3" from="nx1y3" to="nx0y3" type="a"/>
	<edge id="enx0y4nx1y4" from="nx0y4" to="nx1y4" type="a"/>
	<edge id="enx1y4nx0y4" from="nx1y4" to="nx0y4" type="a"/>
	<edge id="enx1y1nx2y1" from="nx1y1" to="nx2y1" type="a"/>
	<edge id="enx2y1nx1y1" from="nx2y1" to="nx1y1" type="a"/>
	<edge id="enx1y2nx2y2" from="nx1y2" to="nx2y2" type="a"/>
	<edge id="enx2y2nx1y2" from="nx2y2" to="nx1y2" type="a"/>
	<edge id="enx1y3nx2y3" from="nx1y3" to="nx2y3" type="a"/>
	<edge id="enx2y3nx1y3" from="nx2y3" to="nx1y3" type="a"/>
	<edge id="enx1y4nx2y4" from="nx1y4" to="nx2y4" type="a"/>
	<edge id="enx2y4nx1y4" from="nx2y4" to="nx1y4" type="a"/>
	<edge id="enx2y1nx3y1" from="nx2y1" to="nx3y1" type="a"/>
	<edge id="enx3y1nx2y1" from="nx3y1" to="nx2y1" type="a"/>
	<edge id="enx2y2nx3y2" from="nx2y2" to="nx3y2" type="a"/>
	<edge id="enx3y2nx2y2" from="nx3y2" to="nx2y2" type="a"/>
	<edge id="enx2y3nx3y3" from="nx2y3" to="nx3y3" type="a"/>
	<edge id="enx3y3nx2y3" from="nx3y3" to="nx2y3" type="a"/>
	<edge id="enx2y4nx3y4" from="nx2y4" to="nx3y4" type="a"/>
	<edge id="enx3y4nx2y4" from="nx3y4" to="nx2y4" type="a"/>
	<edge id="enx3y1nx4y1" from="nx3y1" to="nx4y1" type="a"/>
	<edge id="enx4y1nx3y1" from="nx4y1" to="nx3y1" type="a"/>
	<edge id="enx3y2nx4y2" from="nx3y2" to="nx4y2" type="a"/>
	<edge id="enx4y2nx3y2" from="nx4y2" to="nx3y2" type="a"/>
	<edge id="enx3y3nx4y3" from="nx3y3" to="nx4y3" type="a"/>
	<edge id="enx4y3nx3y3" from="nx4y3" to="nx3y3" type="a"/>
	<edge id="enx3y4nx4y4" from="nx3y4" to="nx4y4" type="a"/>
	<edge id="enx4y4nx3y4" from="nx4y4" to="nx3y4" type="a"/>
	<edge id="enx4y1nx5y1" from="nx4y1" to="nx5y1" type="a"/>
	<edge id="enx5y1nx4y1" from="nx5y1" to="nx4y1" type="a"/>
	<edge id="enx4y2nx5y2" from="nx4y2" to="nx5y2" type="a"/>
	<edge id="enx5y2nx4y2" from="nx5y2" to="nx4y2" type="a"/>
	<edge id="enx4y3nx5y3" from="nx4y3" to="nx5y3" type="a"/>
	<edge id="enx5y3nx4y3" from="nx5y3" to="nx4y3" type="a"/>
	<edge id="enx4y4nx5y4" from="nx4y4" to="nx5y4" type="a"/>
	<edge id="enx5y4nx4y4" from="nx5y4" to="nx4y4" type="a"/>
</edges>