<?xml version="1.0" encoding="UTF-8"?>

<!-- generated on Mon Apr  3 16:06:39 2017 by SUMO netconvert Version 0.29.0
<?xml version="1.0" encoding="UTF-8"?>

<configuration xmlns:xsi="http://www.w3.org/2001/XMLSchema-instance" xsi:noNamespaceSchemaLocation="http://sumo.dlr.de/xsd/netconvertConfiguration.xsd">

    <input>
        <node-files value="net.nod.xml"/>
        <edge-files value="net.edg.xml"/>
        <connection-files value="net.con.xml"/>
        <tllogic-files value="net.tls.xml"/>
        <type-files value="net.typ.xml"/>
    </input>

    <output>
        <output-file value="net.cnd.tls.net.xml"/>
    </output>

    <processing>
        <no-turnarounds.tls value="true"/>
    </processing>

    <report>
        <verbose value="true"/>
    </report>

</configuration>
-->

<net version="0.27" xmlns:xsi="http://www.w3.org/2001/XMLSchema-instance" xsi:noNamespaceSchemaLocation="http://sumo.dlr.de/xsd/net_file.xsd">

    <location netOffset="32.00,39.00" convBoundary="0.00,0.00,2580.00,2597.00" origBoundary="-32.00,-39.00,2548.00,2558.00" projParameter="!"/>

    <type id="a" priority="3" numLanes="2" speed="13.89"/>
    <type id="b" priority="2" numLanes="2" speed="13.89"/>
    <type id="c" priority="1" numLanes="2" speed="13.89"/>

    <edge id=":nx1y1_0" function="internal">
        <lane id=":nx1y1_0_0" index="0" speed="13.89" length="5.30" shape="462.37,472.92 462.11,471.44 461.43,470.51 460.35,470.14 458.86,470.32"/>
    </edge>
    <edge id=":nx1y1_1" function="internal">
        <lane id=":nx1y1_1_0" index="0" speed="13.89" length="17.66" shape="462.37,472.92 462.17,455.42"/>
        <lane id=":nx1y1_1_1" index="1" speed="13.89" length="17.66" shape="462.37,472.92 462.71,467.71 463.76,464.20 464.89,460.70 465.47,455.48"/>
    </edge>
    <edge id=":nx1y1_3" function="internal">
        <lane id=":nx1y1_3_0" index="0" speed="13.89" length="9.71" shape="465.67,472.82 466.18,467.79 468.10,464.36 468.73,464.01"/>
    </edge>
    <edge id=":nx1y1_16" function="internal">
        <lane id=":nx1y1_16_0" index="0" speed="13.89" length="7.80" shape="468.73,464.01 471.42,462.53 476.14,462.30"/>
    </edge>
    <edge id=":nx1y1_4" function="internal">
        <lane id=":nx1y1_4_0" index="0" speed="13.89" length="5.77" shape="475.45,468.86 474.01,468.97 472.99,469.63 472.41,470.84 472.26,472.60"/>
    </edge>
    <edge id=":nx1y1_5" function="internal">
        <lane id=":nx1y1_5_0" index="0" speed="13.89" length="17.32" shape="475.45,468.86 470.49,468.42 467.06,468.45 463.68,469.06 458.86,470.32"/>
        <lane id=":nx1y1_5_1" index="1" speed="13.89" length="17.32" shape="475.45,468.86 470.23,467.89 466.63,466.80 463.07,466.31 458.00,467.14"/>
    </edge>
    <edge id=":nx1y1_7" function="internal">
        <lane id=":nx1y1_7_0" index="0" speed="13.89" length="8.78" shape="475.79,465.58 471.22,464.54 467.98,462.51 467.84,462.28"/>
    </edge>
    <edge id=":nx1y1_17" function="internal">
        <lane id=":nx1y1_17_0" index="0" speed="13.89" length="7.37" shape="467.84,462.28 466.06,459.49 465.47,455.48"/>
    </edge>
    <edge id=":nx1y1_8" function="internal">
        <lane id=":nx1y1_8_0" index="0" speed="13.89" length="6.19" shape="472.07,455.59 472.33,456.91 473.15,457.93 474.53,458.63 476.48,459.02"/>
    </edge>
    <edge id=":nx1y1_9" function="internal">
        <lane id=":nx1y1_9_0" index="0" speed="13.89" length="17.26" shape="472.07,455.59 472.26,472.60"/>
        <lane id=":nx1y1_9_1" index="1" speed="13.89" length="17.26" shape="472.07,455.59 471.49,460.71 470.36,464.15 469.31,467.59 468.97,472.71"/>
    </edge>
    <edge id=":nx1y1_11" function="internal">
        <lane id=":nx1y1_11_0" index="0" speed="13.89" length="8.11" shape="468.77,455.53 468.05,459.53 466.01,462.80 465.85,462.92"/>
    </edge>
    <edge id=":nx1y1_18" function="internal">
        <lane id=":nx1y1_18_0" index="0" speed="13.89" length="9.00" shape="465.85,462.92 462.66,465.34 458.00,467.14"/>
    </edge>
    <edge id=":nx1y1_12" function="internal">
        <lane id=":nx1y1_12_0" index="0" speed="13.89" length="8.54" shape="456.28,460.76 458.83,459.84 460.67,458.64 461.78,457.17 462.17,455.42"/>
    </edge>
    <edge id=":nx1y1_13" function="internal">
        <lane id=":nx1y1_13_0" index="0" speed="13.89" length="20.34" shape="456.28,460.76 462.11,459.25 466.27,458.52 470.49,458.48 476.48,459.02"/>
        <lane id=":nx1y1_13_1" index="1" speed="13.89" length="20.34" shape="456.28,460.76 462.05,459.76 466.10,460.17 470.21,461.26 476.14,462.30"/>
    </edge>
    <edge id=":nx1y1_15" function="internal">
        <lane id=":nx1y1_15_0" index="0" speed="13.89" length="9.58" shape="457.14,463.95 462.17,463.34 465.82,464.60 466.20,465.13"/>
    </edge>
    <edge id=":nx1y1_19" function="internal">
        <lane id=":nx1y1_19_0" index="0" speed="13.89" length="8.27" shape="466.20,465.13 468.08,467.72 468.97,472.71"/>
    </edge>
    <edge id=":nx1y2_0" function="internal">
        <lane id=":nx1y2_0_0" index="0" speed="13.89" length="7.92" shape="498.46,1113.55 496.04,1114.36 494.31,1115.43 493.27,1116.77 492.91,1118.37"/>
    </edge>
    <edge id=":nx1y2_1" function="internal">
        <lane id=":nx1y2_1_0" index="0" speed="13.89" length="20.21" shape="498.46,1113.55 492.62,1114.92 488.49,1115.52 484.32,1115.47 478.36,1114.84"/>
        <lane id=":nx1y2_1_1" index="1" speed="13.89" length="20.21" shape="498.46,1113.55 492.70,1114.39 488.68,1113.87 484.62,1112.70 478.75,1111.56"/>
    </edge>
    <edge id=":nx1y2_3" function="internal">
        <lane id=":nx1y2_3_0" index="0" speed="13.89" length="9.50" shape="497.68,1110.35 492.73,1110.82 489.14,1109.50 488.73,1108.93"/>
    </edge>
    <edge id=":nx1y2_16" function="internal">
        <lane id=":nx1y2_16_0" index="0" speed="13.89" length="8.10" shape="488.73,1108.93 486.91,1106.40 486.04,1101.50"/>
    </edge>
    <edge id=":nx1y2_4" function="internal">
        <lane id=":nx1y2_4_0" index="0" speed="13.89" length="5.27" shape="492.64,1101.28 492.90,1102.75 493.56,1103.68 494.64,1104.07 496.12,1103.93"/>
    </edge>
    <edge id=":nx1y2_5" function="internal">
        <lane id=":nx1y2_5_0" index="0" speed="13.89" length="17.26" shape="492.64,1101.28 492.91,1118.37"/>
        <lane id=":nx1y2_5_1" index="1" speed="13.89" length="17.26" shape="492.64,1101.28 492.29,1106.39 491.25,1109.82 490.14,1113.25 489.61,1118.35"/>
    </edge>
    <edge id=":nx1y2_7" function="internal">
        <lane id=":nx1y2_7_0" index="0" speed="13.89" length="9.48" shape="489.34,1101.39 488.82,1106.33 486.88,1109.67 486.30,1109.97"/>
    </edge>
    <edge id=":nx1y2_17" function="internal">
        <lane id=":nx1y2_17_0" index="0" speed="13.89" length="7.91" shape="486.30,1109.97 483.52,1111.42 478.75,1111.56"/>
    </edge>
    <edge id=":nx1y2_8" function="internal">
        <lane id=":nx1y2_8_0" index="0" speed="13.89" length="5.54" shape="479.53,1105.01 480.98,1104.94 482.00,1104.36 482.59,1103.24 482.74,1101.61"/>
    </edge>
    <edge id=":nx1y2_9" function="internal">
        <lane id=":nx1y2_9_0" index="0" speed="13.89" length="17.27" shape="479.53,1105.01 484.47,1105.53 487.89,1105.57 491.28,1105.07 496.12,1103.93"/>
        <lane id=":nx1y2_9_1" index="1" speed="13.89" length="17.27" shape="479.53,1105.01 484.71,1106.07 488.28,1107.24 491.82,1107.82 496.90,1107.14"/>
    </edge>
    <edge id=":nx1y2_11" function="internal">
        <lane id=":nx1y2_11_0" index="0" speed="13.89" length="9.03" shape="479.14,1108.29 483.74,1109.38 487.02,1111.43 487.26,1111.79"/>
    </edge>
    <edge id=":nx1y2_18" function="internal">
        <lane id=":nx1y2_18_0" index="0" speed="13.89" length="7.13" shape="487.26,1111.79 488.98,1114.42 489.61,1118.35"/>
    </edge>
    <edge id=":nx1y2_12" function="internal">
        <lane id=":nx1y2_12_0" index="0" speed="13.89" length="6.40" shape="483.01,1118.32 482.73,1117.01 481.86,1115.99 480.40,1115.26 478.36,1114.84"/>
    </edge>
    <edge id=":nx1y2_13" function="internal">
        <lane id=":nx1y2_13_0" index="0" speed="13.89" length="16.96" shape="483.01,1118.32 482.74,1101.61"/>
        <lane id=":nx1y2_13_1" index="1" speed="13.89" length="16.96" shape="483.01,1118.32 483.54,1113.29 484.65,1109.91 485.69,1106.53 486.04,1101.50"/>
    </edge>
    <edge id=":nx1y2_15" function="internal">
        <lane id=":nx1y2_15_0" index="0" speed="13.89" length="7.96" shape="486.31,1118.34 486.99,1114.40 488.98,1111.22 489.16,1111.09"/>
    </edge>
    <edge id=":nx1y2_19" function="internal">
        <lane id=":nx1y2_19_0" index="0" speed="13.89" length="8.78" shape="489.16,1111.09 492.28,1108.80 496.90,1107.14"/>
    </edge>
    <edge id=":nx1y3_0" function="internal">
        <lane id=":nx1y3_0_0" index="0" speed="13.89" length="5.22" shape="481.07,1535.30 480.86,1533.85 480.23,1532.89 479.18,1532.44 477.71,1532.49"/>
    </edge>
    <edge id=":nx1y3_1" function="internal">
        <lane id=":nx1y3_1_0" index="0" speed="13.89" length="18.06" shape="481.07,1535.30 481.09,1517.43"/>
        <lane id=":nx1y3_1_1" index="1" speed="13.89" length="18.06" shape="481.07,1535.30 481.57,1529.96 482.71,1526.37 483.85,1522.79 484.39,1517.45"/>
    </edge>
    <edge id=":nx1y3_3" function="internal">
        <lane id=":nx1y3_3_0" index="0" speed="13.89" length="9.70" shape="484.37,1535.29 484.99,1530.51 486.87,1527.00 487.60,1526.47"/>
    </edge>
    <edge id=":nx1y3_16" function="internal">
        <lane id=":nx1y3_16_0" index="0" speed="13.89" length="7.47" shape="487.60,1526.47 490.01,1524.75 494.41,1523.77"/>
    </edge>
    <edge id=":nx1y3_4" function="internal">
        <lane id=":nx1y3_4_0" index="0" speed="13.89" length="7.04" shape="494.86,1530.36 493.15,1530.77 491.94,1531.72 491.21,1533.23 490.97,1535.28"/>
    </edge>
    <edge id=":nx1y3_5" function="internal">
        <lane id=":nx1y3_5_0" index="0" speed="13.89" length="17.58" shape="494.86,1530.36 489.74,1530.73 486.24,1531.08 482.77,1531.60 477.71,1532.49"/>
        <lane id=":nx1y3_5_1" index="1" speed="13.89" length="17.58" shape="494.86,1530.36 489.58,1530.22 485.96,1529.45 482.35,1528.85 477.14,1529.24"/>
    </edge>
    <edge id=":nx1y3_7" function="internal">
        <lane id=":nx1y3_7_0" index="0" speed="13.89" length="8.33" shape="494.64,1527.07 490.14,1526.73 486.93,1525.01 486.83,1524.86"/>
    </edge>
    <edge id=":nx1y3_17" function="internal">
        <lane id=":nx1y3_17_0" index="0" speed="13.89" length="7.97" shape="486.83,1524.86 485.01,1521.92 484.39,1517.45"/>
    </edge>
    <edge id=":nx1y3_8" function="internal">
        <lane id=":nx1y3_8_0" index="0" speed="13.89" length="5.09" shape="490.99,1517.48 491.19,1518.87 491.78,1519.84 492.78,1520.38 494.19,1520.48"/>
    </edge>
    <edge id=":nx1y3_9" function="internal">
        <lane id=":nx1y3_9_0" index="0" speed="13.89" length="18.01" shape="490.99,1517.48 490.97,1535.28"/>
        <lane id=":nx1y3_9_1" index="1" speed="13.89" length="18.01" shape="490.99,1517.48 490.45,1522.81 489.31,1526.38 488.17,1529.96 487.67,1535.28"/>
    </edge>
    <edge id=":nx1y3_11" function="internal">
        <lane id=":nx1y3_11_0" index="0" speed="13.89" length="9.01" shape="487.69,1517.46 487.01,1521.92 485.03,1525.37 484.61,1525.68"/>
    </edge>
    <edge id=":nx1y3_18" function="internal">
        <lane id=":nx1y3_18_0" index="0" speed="13.89" length="8.39" shape="484.61,1525.68 481.74,1527.81 477.14,1529.24"/>
    </edge>
    <edge id=":nx1y3_12" function="internal">
        <lane id=":nx1y3_12_0" index="0" speed="13.89" length="8.09" shape="475.99,1522.74 478.22,1522.07 479.81,1520.96 480.76,1519.42 481.09,1517.43"/>
    </edge>
    <edge id=":nx1y3_13" function="internal">
        <lane id=":nx1y3_13_0" index="0" speed="13.89" length="18.45" shape="475.99,1522.74 481.36,1521.80 485.05,1521.25 488.76,1520.87 494.19,1520.48"/>
        <lane id=":nx1y3_13_1" index="1" speed="13.89" length="18.45" shape="475.99,1522.74 481.41,1522.31 485.16,1522.89 488.93,1523.65 494.41,1523.77"/>
    </edge>
    <edge id=":nx1y3_15" function="internal">
        <lane id=":nx1y3_15_0" index="0" speed="13.89" length="9.05" shape="476.57,1525.99 481.42,1525.83 484.88,1527.33 485.11,1527.68"/>
    </edge>
    <edge id=":nx1y3_19" function="internal">
        <lane id=":nx1y3_19_0" index="0" speed="13.89" length="8.21" shape="485.11,1527.68 486.97,1530.48 487.67,1535.28"/>
    </edge>
    <edge id=":nx1y4_0" function="internal">
        <lane id=":nx1y4_0_0" index="0" speed="13.89" length="6.77" shape="484.01,2041.46 483.37,2039.58 482.40,2038.26 481.10,2037.50 479.47,2037.30"/>
    </edge>
    <edge id=":nx1y4_1" function="internal">
        <lane id=":nx1y4_1_0" index="0" speed="13.89" length="18.63" shape="484.01,2041.46 482.86,2036.06 482.28,2032.32 482.07,2028.54 482.03,2023.02"/>
        <lane id=":nx1y4_1_1" index="1" speed="13.89" length="18.63" shape="484.01,2041.46 483.38,2036.06 483.93,2032.31 484.85,2028.52 485.33,2023.01"/>
    </edge>
    <edge id=":nx1y4_3" function="internal">
        <lane id=":nx1y4_3_0" index="0" speed="13.89" length="8.90" shape="487.23,2040.75 486.92,2036.22 488.23,2032.78 488.76,2032.35"/>
    </edge>
    <edge id=":nx1y4_16" function="internal">
        <lane id=":nx1y4_16_0" index="0" speed="13.89" length="7.79" shape="488.76,2032.35 491.15,2030.42 495.69,2029.14"/>
    </edge>
    <edge id=":nx1y4_4" function="internal">
        <lane id=":nx1y4_4_0" index="0" speed="13.89" length="5.42" shape="496.58,2035.68 495.05,2036.10 494.06,2036.84 493.60,2037.92 493.68,2039.33"/>
    </edge>
    <edge id=":nx1y4_5" function="internal">
        <lane id=":nx1y4_5_0" index="0" speed="13.89" length="17.33" shape="496.58,2035.68 491.52,2036.37 488.05,2036.78 484.57,2037.05 479.47,2037.30"/>
        <lane id=":nx1y4_5_1" index="1" speed="13.89" length="17.33" shape="496.58,2035.68 491.48,2035.86 487.98,2035.14 484.46,2034.27 479.32,2034.01"/>
    </edge>
    <edge id=":nx1y4_7" function="internal">
        <lane id=":nx1y4_7_0" index="0" speed="13.89" length="9.08" shape="496.13,2032.41 491.42,2032.38 488.04,2030.80 487.70,2030.27"/>
    </edge>
    <edge id=":nx1y4_17" function="internal">
        <lane id=":nx1y4_17_0" index="0" speed="13.89" length="7.81" shape="487.70,2030.27 486.02,2027.68 485.33,2023.01"/>
    </edge>
    <edge id=":nx1y4_8" function="internal">
        <lane id=":nx1y4_8_0" index="0" speed="13.89" length="5.17" shape="491.93,2023.00 492.14,2024.43 492.76,2025.38 493.79,2025.86 495.24,2025.88"/>
    </edge>
    <edge id=":nx1y4_9" function="internal">
        <lane id=":nx1y4_9_0" index="0" speed="13.89" length="16.88" shape="491.93,2023.00 491.96,2027.89 492.15,2031.24 492.66,2034.55 493.68,2039.33"/>
        <lane id=":nx1y4_9_1" index="1" speed="13.89" length="16.88" shape="491.93,2023.00 491.45,2028.09 490.51,2031.59 489.91,2035.06 490.45,2040.04"/>
    </edge>
    <edge id=":nx1y4_11" function="internal">
        <lane id=":nx1y4_11_0" index="0" speed="13.89" length="9.13" shape="488.63,2023.00 488.06,2027.66 486.31,2031.04 485.80,2031.42"/>
    </edge>
    <edge id=":nx1y4_18" function="internal">
        <lane id=":nx1y4_18_0" index="0" speed="13.89" length="7.13" shape="485.80,2031.42 483.40,2033.16 479.32,2034.01"/>
    </edge>
    <edge id=":nx1y4_12" function="internal">
        <lane id=":nx1y4_12_0" index="0" speed="13.89" length="5.98" shape="479.01,2027.41 480.34,2027.09 481.28,2026.24 481.85,2024.89 482.03,2023.02"/>
    </edge>
    <edge id=":nx1y4_13" function="internal">
        <lane id=":nx1y4_13_0" index="0" speed="13.89" length="16.59" shape="479.01,2027.41 483.85,2027.17 487.15,2026.92 490.44,2026.53 495.24,2025.88"/>
        <lane id=":nx1y4_13_1" index="1" speed="13.89" length="16.59" shape="479.01,2027.41 483.98,2027.68 487.38,2028.56 490.76,2029.30 495.69,2029.14"/>
    </edge>
    <edge id=":nx1y4_15" function="internal">
        <lane id=":nx1y4_15_0" index="0" speed="13.89" length="8.32" shape="479.17,2030.71 483.30,2031.14 486.56,2032.83 486.87,2033.21"/>
    </edge>
    <edge id=":nx1y4_19" function="internal">
        <lane id=":nx1y4_19_0" index="0" speed="13.89" length="7.82" shape="486.87,2033.21 488.95,2035.80 490.45,2040.04"/>
    </edge>
    <edge id=":nx2y1_0" function="internal">
        <lane id=":nx2y1_0_0" index="0" speed="13.89" length="6.38" shape="1081.24,535.46 1080.92,534.12 1080.04,533.10 1078.59,532.39 1076.59,531.99"/>
    </edge>
    <edge id=":nx2y1_1" function="internal">
        <lane id=":nx2y1_1_0" index="0" speed="13.89" length="16.51" shape="1081.24,535.46 1080.85,519.17"/>
        <lane id=":nx2y1_1_1" index="1" speed="13.89" length="16.51" shape="1081.24,535.46 1081.63,530.57 1082.68,527.28 1083.74,523.99 1084.15,519.10"/>
    </edge>
    <edge id=":nx2y1_3" function="internal">
        <lane id=":nx2y1_3_0" index="0" speed="13.89" length="7.92" shape="1084.54,535.38 1085.08,531.43 1086.93,528.41 1087.26,528.19"/>
    </edge>
    <edge id=":nx2y1_16" function="internal">
        <lane id=":nx2y1_16_0" index="0" speed="13.89" length="8.02" shape="1087.26,528.19 1090.09,526.31 1094.55,525.12"/>
    </edge>
    <edge id=":nx2y1_4" function="internal">
        <lane id=":nx2y1_4_0" index="0" speed="13.89" length="6.18" shape="1095.48,531.66 1093.55,532.12 1092.18,532.86 1091.38,533.89 1091.13,535.21"/>
    </edge>
    <edge id=":nx2y1_5" function="internal">
        <lane id=":nx2y1_5_0" index="0" speed="13.89" length="18.96" shape="1095.48,531.66 1089.90,532.41 1086.05,532.69 1082.19,532.54 1076.59,531.99"/>
        <lane id=":nx2y1_5_1" index="1" speed="13.89" length="18.96" shape="1095.48,531.66 1089.97,531.89 1086.22,531.04 1082.46,529.77 1076.93,528.71"/>
    </edge>
    <edge id=":nx2y1_7" function="internal">
        <lane id=":nx2y1_7_0" index="0" speed="13.89" length="9.13" shape="1095.01,528.39 1090.35,528.37 1086.99,526.82 1086.57,526.19"/>
    </edge>
    <edge id=":nx2y1_17" function="internal">
        <lane id=":nx2y1_17_0" index="0" speed="13.89" length="7.66" shape="1086.57,526.19 1084.92,523.73 1084.15,519.10"/>
    </edge>
    <edge id=":nx2y1_8" function="internal">
        <lane id=":nx2y1_8_0" index="0" speed="13.89" length="5.20" shape="1090.75,518.95 1090.98,520.39 1091.62,521.36 1092.66,521.85 1094.09,521.86"/>
    </edge>
    <edge id=":nx2y1_9" function="internal">
        <lane id=":nx2y1_9_0" index="0" speed="13.89" length="16.49" shape="1090.75,518.95 1091.13,535.21"/>
        <lane id=":nx2y1_9_1" index="1" speed="13.89" length="16.49" shape="1090.75,518.95 1090.34,523.84 1089.28,527.12 1088.23,530.40 1087.83,535.29"/>
    </edge>
    <edge id=":nx2y1_11" function="internal">
        <lane id=":nx2y1_11_0" index="0" speed="13.89" length="9.00" shape="1087.45,519.02 1086.88,523.68 1084.94,526.85 1084.42,527.12"/>
    </edge>
    <edge id=":nx2y1_18" function="internal">
        <lane id=":nx2y1_18_0" index="0" speed="13.89" length="7.82" shape="1084.42,527.12 1081.63,528.53 1076.93,528.71"/>
    </edge>
    <edge id=":nx2y1_12" function="internal">
        <lane id=":nx2y1_12_0" index="0" speed="13.89" length="5.16" shape="1077.62,522.14 1079.06,522.09 1080.08,521.57 1080.67,520.60 1080.85,519.17"/>
    </edge>
    <edge id=":nx2y1_13" function="internal">
        <lane id=":nx2y1_13_0" index="0" speed="13.89" length="16.96" shape="1077.62,522.14 1082.50,522.62 1085.87,522.75 1089.23,522.51 1094.09,521.86"/>
        <lane id=":nx2y1_13_1" index="1" speed="13.89" length="16.96" shape="1077.62,522.14 1082.68,523.16 1086.10,524.42 1089.52,525.29 1094.55,525.12"/>
    </edge>
    <edge id=":nx2y1_15" function="internal">
        <lane id=":nx2y1_15_0" index="0" speed="13.89" length="9.32" shape="1077.28,525.43 1081.81,526.45 1085.08,528.43 1085.56,529.13"/>
    </edge>
    <edge id=":nx2y1_19" function="internal">
        <lane id=":nx2y1_19_0" index="0" speed="13.89" length="6.71" shape="1085.56,529.13 1087.09,531.38 1087.83,535.29"/>
    </edge>
    <edge id=":nx2y2_0" function="internal">
        <lane id=":nx2y2_0_0" index="0" speed="13.89" length="9.08" shape="1103.52,969.59 1102.10,969.76 1100.80,970.94 1099.62,973.14 1098.57,976.37"/>
    </edge>
    <edge id=":nx2y2_1" function="internal">
        <lane id=":nx2y2_1_0" index="0" speed="13.89" length="18.30" shape="1103.52,969.59 1098.38,968.65 1094.76,968.66 1091.14,969.43 1086.01,970.77"/>
        <lane id=":nx2y2_1_1" index="1" speed="13.89" length="18.30" shape="1103.52,969.59 1098.14,968.09 1094.37,966.98 1090.60,966.67 1085.23,967.56"/>
    </edge>
    <edge id=":nx2y2_3" function="internal">
        <lane id=":nx2y2_3_0" index="0" speed="13.89" length="7.57" shape="1104.27,966.37 1100.37,964.97 1097.65,962.89"/>
    </edge>
    <edge id=":nx2y2_16" function="internal">
        <lane id=":nx2y2_16_0" index="0" speed="13.89" length="7.21" shape="1097.65,962.89 1097.55,962.82 1095.82,959.91 1095.18,956.26"/>
    </edge>
    <edge id=":nx2y2_4" function="internal">
        <lane id=":nx2y2_4_0" index="0" speed="13.89" length="6.00" shape="1101.78,956.09 1102.05,957.44 1102.81,958.53 1104.04,959.36 1105.76,959.94"/>
    </edge>
    <edge id=":nx2y2_5" function="internal">
        <lane id=":nx2y2_5_0" index="0" speed="13.89" length="20.67" shape="1101.78,956.09 1101.74,962.12 1101.23,966.35 1100.19,970.53 1098.57,976.37"/>
        <lane id=":nx2y2_5_1" index="1" speed="13.89" length="20.67" shape="1101.78,956.09 1101.25,961.99 1099.64,965.93 1097.50,969.81 1095.38,975.52"/>
    </edge>
    <edge id=":nx2y2_7" function="internal">
        <lane id=":nx2y2_7_0" index="0" speed="13.89" length="6.24" shape="1098.48,956.18 1097.73,959.93 1096.24,961.83"/>
    </edge>
    <edge id=":nx2y2_17" function="internal">
        <lane id=":nx2y2_17_0" index="0" speed="13.89" length="12.65" shape="1096.24,961.83 1095.27,963.08 1091.10,965.62 1085.23,967.56"/>
    </edge>
    <edge id=":nx2y2_8" function="internal">
        <lane id=":nx2y2_8_0" index="0" speed="13.89" length="10.00" shape="1083.67,961.15 1087.29,960.09 1089.86,958.94 1091.39,957.69 1091.88,956.34"/>
    </edge>
    <edge id=":nx2y2_9" function="internal">
        <lane id=":nx2y2_9_0" index="0" speed="13.89" length="22.11" shape="1083.67,961.15 1089.85,959.64 1094.70,958.81 1099.56,958.85 1105.76,959.94"/>
        <lane id=":nx2y2_9_1" index="1" speed="13.89" length="22.11" shape="1083.67,961.15 1089.73,960.15 1094.33,960.42 1098.93,961.56 1105.01,963.16"/>
    </edge>
    <edge id=":nx2y2_11" function="internal">
        <lane id=":nx2y2_11_0" index="0" speed="13.89" length="10.53" shape="1084.45,964.35 1090.70,963.70 1094.61,965.34"/>
    </edge>
    <edge id=":nx2y2_18" function="internal">
        <lane id=":nx2y2_18_0" index="0" speed="13.89" length="10.53" shape="1094.61,965.34 1096.17,969.28 1095.38,975.52"/>
    </edge>
    <edge id=":nx2y2_12" function="internal">
        <lane id=":nx2y2_12_0" index="0" speed="13.89" length="5.77" shape="1089.00,973.83 1089.22,972.12 1088.79,971.04 1087.72,970.59 1086.01,970.77"/>
    </edge>
    <edge id=":nx2y2_13" function="internal">
        <lane id=":nx2y2_13_0" index="0" speed="13.89" length="18.36" shape="1089.00,973.83 1090.44,968.73 1091.38,965.20 1091.84,961.61 1091.88,956.34"/>
        <lane id=":nx2y2_13_1" index="1" speed="13.89" length="18.36" shape="1089.00,973.83 1091.01,968.59 1093.08,965.16 1094.65,961.67 1095.18,956.26"/>
    </edge>
    <edge id=":nx2y2_15" function="internal">
        <lane id=":nx2y2_15_0" index="0" speed="13.89" length="12.61" shape="1092.19,974.67 1094.35,968.84 1097.21,964.97 1098.60,964.23"/>
    </edge>
    <edge id=":nx2y2_19" function="internal">
        <lane id=":nx2y2_19_0" index="0" speed="13.89" length="6.70" shape="1098.60,964.23 1100.76,963.08 1105.01,963.16"/>
    </edge>
    <edge id=":nx2y3_0" function="internal">
        <lane id=":nx2y3_0_0" index="0" speed="13.89" length="6.10" shape="951.90,1503.65 951.53,1501.75 950.84,1500.42 949.81,1499.66 948.44,1499.48"/>
    </edge>
    <edge id=":nx2y3_1" function="internal">
        <lane id=":nx2y3_1_0" index="0" speed="13.89" length="20.12" shape="951.90,1503.65 951.43,1497.69 951.46,1493.55 952.14,1489.48 953.62,1483.68"/>
        <lane id=":nx2y3_1_1" index="1" speed="13.89" length="20.12" shape="951.90,1503.65 951.94,1497.86 953.07,1493.98 954.85,1490.16 956.81,1484.53"/>
    </edge>
    <edge id=":nx2y3_3" function="internal">
        <lane id=":nx2y3_3_0" index="0" speed="13.89" length="9.35" shape="955.18,1503.36 955.45,1498.53 957.25,1495.21 957.90,1494.86"/>
    </edge>
    <edge id=":nx2y3_16" function="internal">
        <lane id=":nx2y3_16_0" index="0" speed="13.89" length="7.94" shape="957.90,1494.86 960.59,1493.39 965.46,1493.08"/>
    </edge>
    <edge id=":nx2y3_4" function="internal">
        <lane id=":nx2y3_4_0" index="0" speed="13.89" length="5.30" shape="964.95,1499.66 963.44,1499.75 962.40,1500.30 961.84,1501.31 961.76,1502.77"/>
    </edge>
    <edge id=":nx2y3_5" function="internal">
        <lane id=":nx2y3_5_0" index="0" speed="13.89" length="16.88" shape="964.95,1499.66 960.06,1499.28 956.70,1499.12 953.34,1499.18 948.44,1499.48"/>
        <lane id=":nx2y3_5_1" index="1" speed="13.89" length="16.88" shape="964.95,1499.66 959.94,1498.76 956.59,1497.46 953.23,1496.39 948.22,1496.18"/>
    </edge>
    <edge id=":nx2y3_7" function="internal">
        <lane id=":nx2y3_7_0" index="0" speed="13.89" length="8.81" shape="965.21,1496.37 960.44,1495.30 957.45,1492.97 957.41,1492.84"/>
    </edge>
    <edge id=":nx2y3_17" function="internal">
        <lane id=":nx2y3_17_0" index="0" speed="13.89" length="8.54" shape="957.41,1492.84 956.24,1489.38 956.81,1484.53"/>
    </edge>
    <edge id=":nx2y3_8" function="internal">
        <lane id=":nx2y3_8_0" index="0" speed="13.89" length="5.23" shape="963.19,1486.22 963.02,1487.68 963.38,1488.77 964.28,1489.47 965.72,1489.79"/>
    </edge>
    <edge id=":nx2y3_9" function="internal">
        <lane id=":nx2y3_9_0" index="0" speed="13.89" length="17.26" shape="963.19,1486.22 961.96,1491.03 961.39,1494.40 961.37,1497.82 961.76,1502.77"/>
        <lane id=":nx2y3_9_1" index="1" speed="13.89" length="17.26" shape="963.19,1486.22 961.39,1491.19 959.69,1494.54 958.56,1497.94 958.47,1503.06"/>
    </edge>
    <edge id=":nx2y3_11" function="internal">
        <lane id=":nx2y3_11_0" index="0" speed="13.89" length="9.81" shape="960.00,1485.37 958.25,1489.87 955.70,1493.17 955.01,1493.61"/>
    </edge>
    <edge id=":nx2y3_18" function="internal">
        <lane id=":nx2y3_18_0" index="0" speed="13.89" length="7.37" shape="955.01,1493.61 952.36,1495.28 948.22,1496.18"/>
    </edge>
    <edge id=":nx2y3_12" function="internal">
        <lane id=":nx2y3_12_0" index="0" speed="13.89" length="8.92" shape="947.77,1489.60 949.77,1489.12 951.41,1487.97 952.69,1486.16 953.62,1483.68"/>
    </edge>
    <edge id=":nx2y3_13" function="internal">
        <lane id=":nx2y3_13_0" index="0" speed="13.89" length="18.07" shape="947.77,1489.60 953.10,1489.27 956.75,1489.21 960.40,1489.38 965.72,1489.79"/>
        <lane id=":nx2y3_13_1" index="1" speed="13.89" length="18.07" shape="947.77,1489.60 953.07,1489.79 956.62,1490.85 960.17,1492.16 965.46,1493.08"/>
    </edge>
    <edge id=":nx2y3_15" function="internal">
        <lane id=":nx2y3_15_0" index="0" speed="13.89" length="8.29" shape="948.00,1492.89 952.21,1493.28 955.37,1495.11 955.59,1495.46"/>
    </edge>
    <edge id=":nx2y3_19" function="internal">
        <lane id=":nx2y3_19_0" index="0" speed="13.89" length="8.26" shape="955.59,1495.46 957.45,1498.37 958.47,1503.06"/>
    </edge>
    <edge id=":nx2y4_0" function="internal">
        <lane id=":nx2y4_0_0" index="0" speed="13.89" length="5.66" shape="1005.90,1968.16 1004.48,1968.20 1003.44,1968.79 1002.77,1969.93 1002.48,1971.62"/>
    </edge>
    <edge id=":nx2y4_1" function="internal">
        <lane id=":nx2y4_1_0" index="0" speed="13.89" length="17.06" shape="1005.90,1968.16 1001.02,1967.50 997.64,1967.30 994.26,1967.53 989.37,1968.18"/>
        <lane id=":nx2y4_1_1" index="1" speed="13.89" length="17.06" shape="1005.90,1968.16 1000.85,1966.96 997.42,1965.62 993.98,1964.75 988.92,1964.91"/>
    </edge>
    <edge id=":nx2y4_3" function="internal">
        <lane id=":nx2y4_3_0" index="0" speed="13.89" length="9.07" shape="1006.38,1964.89 1002.00,1963.70 998.75,1961.55 998.39,1961.03"/>
    </edge>
    <edge id=":nx2y4_16" function="internal">
        <lane id=":nx2y4_16_0" index="0" speed="13.89" length="7.26" shape="998.39,1961.03 996.64,1958.46 995.66,1954.43"/>
    </edge>
    <edge id=":nx2y4_4" function="internal">
        <lane id=":nx2y4_4_0" index="0" speed="13.89" length="7.42" shape="1002.24,1953.84 1002.68,1955.56 1003.68,1956.88 1005.23,1957.82 1007.34,1958.36"/>
    </edge>
    <edge id=":nx2y4_5" function="internal">
        <lane id=":nx2y4_5_0" index="0" speed="13.89" length="17.91" shape="1002.24,1953.84 1002.67,1959.10 1002.82,1962.72 1002.74,1966.34 1002.48,1971.62"/>
        <lane id=":nx2y4_5_1" index="1" speed="13.89" length="17.91" shape="1002.24,1953.84 1002.16,1959.09 1001.18,1962.64 999.96,1966.19 999.19,1971.46"/>
    </edge>
    <edge id=":nx2y4_7" function="internal">
        <lane id=":nx2y4_7_0" index="0" speed="13.89" length="8.17" shape="998.95,1954.13 998.64,1958.29 996.86,1961.47 996.56,1961.67"/>
    </edge>
    <edge id=":nx2y4_17" function="internal">
        <lane id=":nx2y4_17_0" index="0" speed="13.89" length="8.42" shape="996.56,1961.67 993.62,1963.68 988.92,1964.91"/>
    </edge>
    <edge id=":nx2y4_8" function="internal">
        <lane id=":nx2y4_8_0" index="0" speed="13.89" length="6.34" shape="988.02,1958.37 990.03,1957.90 991.42,1957.14 992.21,1956.08 992.38,1954.72"/>
    </edge>
    <edge id=":nx2y4_9" function="internal">
        <lane id=":nx2y4_9_0" index="0" speed="13.89" length="19.37" shape="988.02,1958.37 993.73,1957.62 997.69,1957.35 1001.63,1957.59 1007.34,1958.36"/>