<?xml version="1.0" encoding="UTF-8"?>

<!-- generated on Tue Apr  4 23:11:58 2017 by SUMO duarouter Version 0.29.0
<?xml version="1.0" encoding="UTF-8"?>

<configuration xmlns:xsi="http://www.w3.org/2001/XMLSchema-instance" xsi:noNamespaceSchemaLocation="http://sumo.dlr.de/xsd/duarouterConfiguration.xsd">

    <input>
        <net-file value="net.cnd.tls.net.xml"/>
        <additional-files value="vtype.add.xml"/>
        <trip-files value="net.trips.xml"/>
    </input>

    <output>
        <output-file value="net.rou.xml"/>
    </output>

    <processing>
        <routing-algorithm value="dijkstra"/>
    </processing>

</configuration>
-->

<routes xmlns:xsi="http://www.w3.org/2001/XMLSchema-instance" xsi:noNamespaceSchemaLocation="http://sumo.dlr.de/xsd/routes_file.xsd">
    <vType id="vt1" length="4.00" minGap="1.50" maxSpeed="30.00" speedFactor="1.00" speedDev="0.01" vClass="passenger" impatience="0.00" guiShape="passenger" color="red">
        <carFollowing-Krauss accel="3.00" decel="6.00" sigma="0.10"/>
    </vType>
    <vehicle id="a0" type="vt1" depart="0.00" departLane="best" departPos="base" departSpeed="max" arrivalPos="max">
        <route edges="enx5y1nx4y1 enx4y1nx3y1 enx3y1nx2y1 enx2y1nx2y2 enx2y2nx2y3 enx2y3nx1y3 enx1y3nx1y4 enx1y4nx0y4"/>
    </vehicle>
    <vehicle id="a1" type="vt1" depart="3.00" departLane="best" departPos="base" departSpeed="max" arrivalPos="max">
        <route edges="enx2y5nx2y4 enx2y4nx2y3 enx2y3nx2y2 enx2y2nx2y1 enx2y1nx3y1 enx3y1nx4y1 enx4y1nx5y1"/>
    </vehicle>
    <vehicle id="a2" type="vt1" depart="6.00" departLane="best" departPos="base" departSpeed="max" arrivalPos="max">
        <route edges="enx0y4nx1y4 enx1y4nx2y4 enx2y4nx3y4 enx3y4nx4y4 enx4y4nx5y4"/>
    </vehicle>
    <vehicle id="a3" type="vt1" depart="9.00" departLane="best" departPos="base" departSpeed="max" arrivalPos="max">
        <route edges="enx5y3nx4y3 enx4y3nx3y3 enx3y3nx3y2 enx3y2nx2y2 enx2y2nx2y1 enx2y1nx1y1 enx1y1nx0y1"/>
    </vehicle>
    <vehicle id="a4" type="vt1" depart="12.00" departLane="best" departPos="base" departSpeed="max" arrivalPos="max">
        <route edges="enx4y0nx4y1 enx4y1nx3y1 enx3y1nx2y1 enx2y1nx2y2 enx2y2nx2y3 enx2y3nx1y3 enx1y3nx0y3"/>
    </vehicle>
    <vehicle id="a5" type="vt1" depart="15.00" departLane="best" departPos="base" departSpeed="max" arrivalPos="max">
        <route edges="enx1y0nx1y1 enx1y1nx2y1 enx2y1nx2y2 enx2y2nx3y2 enx3y2nx3y3 enx3y3nx3y4 enx3y4nx3y5"/>
    </vehicle>
    <vehicle id="a6" type="vt1" depart="18.00" departLane="best" departPos="base" departSpeed="max" arrivalPos="max">
        <route edges="enx3y0nx3y1 enx3y1nx3y2 enx3y2nx3y3 enx3y3nx3y4 enx3y4nx3y5"/>
    </vehicle>
    <vehicle id="a7" type="vt1" depart="21.00" departLane="best" departPos="base" departSpeed="max" arrivalPos="max">
        <route edges="enx4y5nx4y4 enx4y4nx4y3 enx4y3nx4y2 enx4y2nx4y1 enx4y1nx4y0"/>
    </vehicle>
    <vehicle id="a8" type="vt1" depart="24.00" departLane="best" departPos="base" departSpeed="max" arrivalPos="max">
        <route edges="enx2y0nx2y1 enx2y1nx2y2 enx2y2nx2y3 enx2y3nx2y4 enx2y4nx2y5"/>
    </vehicle>
    <vehicle id="a9" type="vt1" depart="27.00" departLane="best" departPos="base" departSpeed="max" arrivalPos="max">
        <route edges="enx5y2nx4y2 enx4y2nx4y3 enx4y3nx3y3 enx3y3nx2y3 enx2y3nx1y3 enx1y3nx0y3"/>
    </vehicle>
    <vehicle id="a10" type="vt1" depart="30.00" departLane="best" departPos="base" departSpeed="max" arrivalPos="max">
        <route edges="enx5y4nx4y4 enx4y4nx4y3 enx4y3nx3y3 enx3y3nx3y2 enx3y2nx2y2 enx2y2nx2y1 enx2y1nx1y1 enx1y1nx0y1"/>
    </vehicle>
    <vehicle id="a11" type="vt1" depart="33.00" departLane="best" departPos="base" departSpeed="max" arrivalPos="max">
        <route edges="enx0y1nx1y1 enx1y1nx2y1 enx2y1nx2y2 enx2y2nx3y2 enx3y2nx3y3 enx3y3nx4y3 enx4y3nx5y3"/>
    </vehicle>
    <vehicle id="a12" type="vt1" depart="36.00" departLane="best" departPos="base" departSpeed="max" arrivalPos="max">
        <route edges="enx3y0nx3y1 enx3y1nx2y1 enx2y1nx2y2 enx2y2nx2y3 enx2y3nx2y4 enx2y4nx2y5"/>
    </vehicle>
    <vehicle id="a13" type="vt1" depart="39.00" departLane="best" departPos="base" departSpeed="max" arrivalPos="max">
        <route edges="enx3y0nx3y1 enx3y1nx3y2 enx3y2nx3y3 enx3y3nx3y4 enx3y4nx3y5"/>
    </vehicle>
    <vehicle id="a14" type="vt1" depart="42.00" departLane="best" departPos="base" departSpeed="max" arrivalPos="max">
        <route edges="enx1y0nx1y1 enx1y1nx2y1 enx2y1nx2y2 enx2y2nx3y2 enx3y2nx3y3 enx3y3nx4y3 enx4y3nx5y3"/>
    </vehicle>
    <vehicle id="a15" type="vt1" depart="45.00" departLane="best" departPos="base" departSpeed="max" arrivalPos="max">
        <route edges="enx1y5nx1y4 enx1y4nx1y3 enx1y3nx1y2 enx1y2nx1y1 enx1y1nx1y0"/>
    </vehicle>
    <vehicle id="a16" type="vt1" depart="48.00" departLane="best" departPos="base" departSpeed="max" arrivalPos="max">
        <route edges="enx0y2nx1y2 enx1y2nx1y3 enx1y3nx2y3 enx2y3nx3y3 enx3y3nx4y3 enx4y3nx4y4 enx4y4nx4y5"/>
    </vehicle>
    <vehicle id="a17" type="vt1" depart="51.00" departLane="best" departPos="base" departSpeed="max" arrivalPos="max">
        <route edges="enx0y3nx1y3 enx1y3nx2y3 enx2y3nx2y2 enx2y2nx2y1 enx2y1nx3y1 enx3y1nx4y1 enx4y1nx5y1"/>
    </vehicle>
    <vehicle id="a18" type="vt1" depart="54.00" departLane="best" departPos="base" departSpeed="max" arrivalPos="max">
        <route edges="enx0y3nx1y3 enx1y3nx2y3 enx2y3nx2y2 enx2y2nx2y1 enx2y1nx3y1 enx3y1nx4y1 enx4y1nx5y1"/>
    </vehicle>
    <vehicle id="a19" type="vt1" depart="57.00" departLane="best" departPos="base" departSpeed="max" arrivalPos="max">
        <route edges="enx0y4nx1y4 enx1y4nx2y4 enx2y4nx3y4 enx3y4nx4y4 enx4y4nx5y4"/>
    </vehicle>
    <vehicle id="a20" type="vt1" depart="60.00" departLane="best" departPos="base" departSpeed="max" arrivalPos="max">
        <route edges="enx0y4nx1y4 enx1y4nx1y3 enx1y3nx2y3 enx2y3nx2y2 enx2y2nx2y1 enx2y1nx3y1 enx3y1nx4y1 enx4y1nx4y0"/>
    </vehicle>
    <vehicle id="a21" type="vt1" depart="63.00" departLane="best" departPos="base" departSpeed="max" arrivalPos="max">
        <route edges="enx2y0nx2y1 enx2y1nx2y2 enx2y2nx3y2 enx3y2nx3y3 enx3y3nx3y4 enx3y4nx3y5"/>
    </vehicle>
    <vehicle id="a22" type="vt1" depart="66.00" departLane="best" departPos="base" departSpeed="max" arrivalPos="max">
        <route edges="enx1y5nx1y4 enx1y4nx1y3 enx1y3nx2y3 enx2y3nx2y2 enx2y2nx2y1 enx2y1nx3y1 enx3y1nx4y1 enx4y1nx4y0"/>
    </vehicle>
    <vehicle id="a23" type="vt1" depart="69.00" departLane="best" departPos="base" departSpeed="max" arrivalPos="max">
        <route edges="enx4y5nx4y4 enx4y4nx4y3 enx4y3nx3y3 enx3y3nx3y2 enx3y2nx2y2 enx2y2nx2y1 enx2y1nx2y0"/>
    </vehicle>
    <vehicle id="a24" type="vt1" depart="72.00" departLane="best" departPos="base" departSpeed="max" arrivalPos="max">
        <route edges="enx5y3nx4y3 enx4y3nx3y3 enx3y3nx3y2 enx3y2nx2y2 enx2y2nx2y1 enx2y1nx1y1 enx1y1nx0y1"/>
    </vehicle>
    <vehicle id="a25" type="vt1" depart="75.00" departLane="best" departPos="base" departSpeed="max" arrivalPos="max">
        <route edges="enx4y5nx4y4 enx4y4nx4y3 enx4y3nx4y2 enx4y2nx4y1 enx4y1nx3y1 enx3y1nx3y0"/>
    </vehicle>
    <vehicle id="a26" type="vt1" depart="78.00" departLane="best" departPos="base" departSpeed="max" arrivalPos="max">
        <route edges="enx2y0nx2y1 enx2y1nx2y2 enx2y2nx2y3 enx2y3nx1y3 enx1y3nx1y4 enx1y4nx1y5"/>
    </vehicle>
    <vehicle id="a27" type="vt1" depart="81.00" departLane="best" departPos="base" departSpeed="max" arrivalPos="max">
        <route edges="enx0y4nx1y4 enx1y4nx1y3 enx1y3nx2y3 enx2y3nx2y2 enx2y2nx2y1 enx2y1nx3y1 enx3y1nx4y1 enx4y1nx4y0"/>
    </vehicle>
    <vehicle id="a28" type="vt1" depart="84.00" departLane="best" departPos="base" departSpeed="max" arrivalPos="max">
        <route edges="enx5y3nx4y3 enx4y3nx3y3 enx3y3nx3y2 enx3y2nx2y2 enx2y2nx2y1 enx2y1nx1y1 enx1y1nx0y1"/>
    </vehicle>
    <vehicle id="a29" type="vt1" depart="87.00" departLane="best" departPos="base" departSpeed="max" arrivalPos="max">
        <route edges="enx0y4nx1y4 enx1y4nx1y3 enx1y3nx2y3 enx2y3nx2y2 enx2y2nx2y1 enx2y1nx3y1 enx3y1nx4y1 enx4y1nx5y1"/>
    </vehicle>
    <vehicle id="a30" type="vt1" depart="90.00" departLane="best" departPos="base" departSpeed="max" arrivalPos="max">
        <route edges="enx5y2nx4y2 enx4y2nx4y3 enx4y3nx3y3 enx3y3nx2y3 enx2y3nx1y3 enx1y3nx1y4 enx1y4nx1y5"/>
    </vehicle>
    <vehicle id="a31" type="vt1" depart="93.00" departLane="best" departPos="base" departSpeed="max" arrivalPos="max">
        <route edges="enx0y2nx1y2 enx1y2nx1y3 enx1y3nx2y3 enx2y3nx3y3 enx3y3nx4y3 enx4y3nx5y3"/>
    </vehicle>
    <vehicle id="a32" type="vt1" depart="96.00" departLane="best" departPos="base" departSpeed="max" arrivalPos="max">
        <route edges="enx5y2nx4y2 enx4y2nx4y1 enx4y1nx3y1 enx3y1nx2y1 enx2y1nx1y1 enx1y1nx0y1"/>
    </vehicle>
    <vehicle id="a33" type="vt1" depart="99.00" departLane="best" departPos="base" departSpeed="max" arrivalPos="max">
        <route edges="enx0y2nx1y2 enx1y2nx1y3 enx1y3nx2y3 enx2y3nx3y3 enx3y3nx4y3 enx4y3nx4y4 enx4y4nx4y5"/>
    </vehicle>
    <vehicle id="a34" type="vt1" depart="102.00" departLane="best" departPos="base" departSpeed="max" arrivalPos="max">
        <route edges="enx5y4nx4y4 enx4y4nx4y3 enx4y3nx3y3 enx3y3nx3y2 enx3y2nx2y2 enx2y2nx2y1 enx2y1nx2y0"/>
    </vehicle>
    <vehicle id="a35" type="vt1" depart="105.00" departLane="best" departPos="base" departSpeed="max" arrivalPos="max">
        <route edges="enx0y4nx1y4 enx1y4nx1y3 enx1y3nx2y3 enx2y3nx2y2 enx2y2nx2y1 enx2y1nx3y1 enx3y1nx4y1 enx4y1nx5y1"/>
    </vehicle>
    <vehicle id="a36" type="vt1" depart="108.00" departLane="best" departPos="base" departSpeed="max" arrivalPos="max">
        <route edges="enx0y2nx1y2 enx1y2nx1y3 enx1y3nx2y3 enx2y3nx3y3 enx3y3nx4y3 enx4y3nx4y4 enx4y4nx4y5"/>
    </vehicle>
    <vehicle id="a37" type="vt1" depart="111.00" departLane="best" departPos="base" departSpeed="max" arrivalPos="max">
        <route edges="enx2y0nx2y1 enx2y1nx2y2 enx2y2nx3y2 enx3y2nx3y3 enx3y3nx4y3 enx4y3nx4y4 enx4y4nx5y4"/>
    </vehicle>
    <vehicle id="a38" type="vt1" depart="114.00" departLane="best" departPos="base" departSpeed="max" arrivalPos="max">
        <route edges="enx5y3nx4y3 enx4y3nx3y3 enx3y3nx2y3 enx2y3nx1y3 enx1y3nx1y4 enx1y4nx0y4"/>
    </vehicle>
    <vehicle id="a39" type="vt1" depart="117.00" departLane="best" departPos="base" departSpeed="max" arrivalPos="max">
        <route edges="enx1y0nx1y1 enx1y1nx1y2 enx1y2nx1y3 enx1y3nx2y3 enx2y3nx2y4 enx2y4nx2y5"/>
    </vehicle>
    <vehicle id="a40" type="vt1" depart="120.00" departLane="best" departPos="base" departSpeed="max" arrivalPos="max">
        <route edges="enx5y4nx4y4 enx4y4nx3y4 enx3y4nx2y4 enx2y4nx1y4 enx1y4nx0y4"/>
    </vehicle>
    <vehicle id="a41" type="vt1" depart="123.00" departLane="best" departPos="base" departSpeed="max" arrivalPos="max">
        <route edges="enx1y5nx1y4 enx1y4nx1y3 enx1y3nx1y2 enx1y2nx1y1 enx1y1nx1y0"/>
    </vehicle>
    <vehicle id="a42" type="vt1" depart="126.00" departLane="best" departPos="base" departSpeed="max" arrivalPos="max">
        <route edges="enx5y4nx4y4 enx4y4nx4y3 enx4y3nx3y3 enx3y3nx3y2 enx3y2nx2y2 enx2y2nx2y1 enx2y1nx1y1 enx1y1nx1y0"/>
    </vehicle>
    <vehicle id="a43" type="vt1" depart="129.00" departLane="best" departPos="base" departSpeed="max" arrivalPos="max">
        <route edges="enx5y4nx4y4 enx4y4nx4y3 enx4y3nx3y3 enx3y3nx3y2 enx3y2nx2y2 enx2y2nx2y1 enx2y1nx2y0"/>
    </vehicle>
    <vehicle id="a44" type="vt1" depart="132.00" departLane="best" departPos="base" departSpeed="max" arrivalPos="max">
        <route edges="enx5y3nx4y3 enx4y3nx3y3 enx3y3nx2y3 enx2y3nx1y3 enx1y3nx1y4 enx1y4nx0y4"/>
    </vehicle>
    <vehicle id="a45" type="vt1" depart="135.00" departLane="best" departPos="base" departSpeed="max" arrivalPos="max">
        <route edges="enx1y5nx1y4 enx1y4nx1y3 enx1y3nx2y3 enx2y3nx2y2 enx2y2nx2y1 enx2y1nx3y1 enx3y1nx3y0"/>
    </vehicle>
    <vehicle id="a46" type="vt1" depart="138.00" departLane="best" departPos="base" departSpeed="max" arrivalPos="max">
        <route edges="enx5y4nx4y4 enx4y4nx4y3 enx4y3nx3y3 enx3y3nx2y3 enx2y3nx1y3 enx1y3nx1y2 enx1y2nx0y2"/>
    </vehicle>
    <vehicle id="a47" type="vt1" depart="141.00" departLane="best" departPos="base" departSpeed="max" arrivalPos="max">
        <route edges="enx5y2nx4y2 enx4y2nx4y3 enx4y3nx3y3 enx3y3nx2y3 enx2y3nx1y3 enx1y3nx1y4 enx1y4nx1y5"/>
    </vehicle>
    <vehicle id="a48" type="vt1" depart="144.00" departLane="best" departPos="base" departSpeed="max" arrivalPos="max">
        <route edges="enx5y3nx4y3 enx4y3nx3y3 enx3y3nx2y3 enx2y3nx1y3 enx1y3nx1y4 enx1y4nx0y4"/>
    </vehicle>
    <vehicle id="a49" type="vt1" depart="147.00" departLane="best" departPos="base" departSpeed="max" arrivalPos="max">
        <route edges="enx5y3nx4y3 enx4y3nx3y3 enx3y3nx2y3 enx2y3nx1y3 enx1y3nx1y2 enx1y2nx0y2"/>
    </vehicle>
    <vehicle id="a50" type="vt1" depart="150.00" departLane="best" departPos="base" departSpeed="max" arrivalPos="max">
        <route edges="enx5y3nx4y3 enx4y3nx3y3 enx3y3nx3y2 enx3y2nx2y2 enx2y2nx2y1 enx2y1nx1y1 enx1y1nx0y1"/>
    </vehicle>
    <vehicle id="a51" type="vt1" depart="153.00" departLane="best" departPos="base" departSpeed="max" arrivalPos="max">
        <route edges="enx4y5nx4y4 enx4y4nx4y3 enx4y3nx4y2 enx4y2nx4y1 enx4y1nx4y0"/>
    </vehicle>
    <vehicle id="a52" type="vt1" depart="156.00" departLane="best" departPos="base" departSpeed="max" arrivalPos="max">
        <route edges="enx2y0nx2y1 enx2y1nx2y2 enx2y2nx2y3 enx2y3nx1y3 enx1y3nx1y4 enx1y4nx1y5"/>
    </vehicle>
    <vehicle id="a53" type="vt1" depart="159.00" departLane="best" departPos="base" departSpeed="max" arrivalPos="max">
        <route edges="enx3y5nx3y4 enx3y4nx3y3 enx3y3nx3y2 enx3y2nx2y2 enx2y2nx2y1 enx2y1nx1y1 enx1y1nx1y0"/>
    </vehicle>
    <vehicle id="a54" type="vt1" depart="162.00" departLane="best" departPos="base" departSpeed="max" arrivalPos="max">
        <route edges="enx2y0nx2y1 enx2y1nx2y2 enx2y2nx3y2 enx3y2nx3y3 enx3y3nx3y4 enx3y4nx3y5"/>
    </vehicle>
    <vehicle id="a55" type="vt1" depart="165.00" departLane="best" departPos="base" departSpeed="max" arrivalPos="max">
        <route edges="enx0y3nx1y3 enx1y3nx2y3 enx2y3nx3y3 enx3y3nx4y3 enx4y3nx4y2 enx4y2nx5y2"/>
    </vehicle>
    <vehicle id="a56" type="vt1" depart="168.00" departLane="best" departPos="base" departSpeed="max" arrivalPos="max">
        <route edges="enx1y5nx1y4 enx1y4nx1y3 enx1y3nx2y3 enx2y3nx2y2 enx2y2nx2y1 enx2y1nx3y1 enx3y1nx3y0"/>
    </vehicle>
    <vehicle id="a57" type="vt1" depart="171.00" departLane="best" departPos="base" departSpeed="max" arrivalPos="max">
        <route edges="enx0y3nx1y3 enx1y3nx2y3 enx2y3nx2y2 enx2y2nx2y1 enx2y1nx3y1 enx3y1nx4y1 enx4y1nx5y1"/>
    </vehicle>
    <vehicle id="a58" type="vt1" depart="174.00" departLane="best" departPos="base" departSpeed="max" arrivalPos="max">
        <route edges="enx0y1nx1y1 enx1y1nx2y1 enx2y1nx2y2 enx2y2nx3y2 enx3y2nx3y3 enx3y3nx4y3 enx4y3nx4y4 enx4y4nx5y4"/>
    </vehicle>
    <vehicle id="a59" type="vt1" depart="177.00" departLane="best" departPos="base" departSpeed="max" arrivalPos="max">
        <route edges="enx1y0nx1y1 enx1y1nx2y1 enx2y1nx2y2 enx2y2nx3y2 enx3y2nx3y3 enx3y3nx4y3 enx4y3nx4y4 enx4y4nx4y5"/>
    </vehicle>
    <vehicle id="a60" type="vt1" depart="180.00" departLane="best" departPos="base" departSpeed="max" arrivalPos="max">
        <route edges="enx5y4nx4y4 enx4y4nx4y3 enx4y3nx3y3 enx3y3nx2y3 enx2y3nx1y3 enx1y3nx1y2 enx1y2nx0y2"/>
    </vehicle>
    <vehicle id="a61" type="vt1" depart="183.00" departLane="best" departPos="base" departSpeed="max" arrivalPos="max">
        <route edges="enx5y4nx4y4 enx4y4nx4y3 enx4y3nx3y3 enx3y3nx3y2 enx3y2nx2y2 enx2y2nx2y1 enx2y1nx2y0"/>
    </vehicle>
    <vehicle id="a62" type="vt1" depart="186.00" departLane="best" departPos="base" departSpeed="max" arrivalPos="max">
        <route edges="enx5y4nx4y4 enx4y4nx4y3 enx4y3nx3y3 enx3y3nx3y2 enx3y2nx2y2 enx2y2nx2y1 enx2y1nx1y1 enx1y1nx1y0"/>
    </vehicle>
    <vehicle id="a63" type="vt1" depart="189.00" departLane="best" departPos="base" departSpeed="max" arrivalPos="max">
        <route edges="enx3y5nx3y4 enx3y4nx3y3 enx3y3nx3y2 enx3y2nx2y2 enx2y2nx2y1 enx2y1nx2y0"/>
    </vehicle>
    <vehicle id="a64" type="vt1" depart="192.00" departLane="best" departPos="base" departSpeed="max" arrivalPos="max">
        <route edges="enx5y2nx4y2 enx4y2nx4y3 enx4y3nx3y3 enx3y3nx2y3 enx2y3nx1y3 enx1y3nx0y3"/>
    </vehicle>
    <vehicle id="a65" type="vt1" depart="195.00" departLane="best" departPos="base" departSpeed="max" arrivalPos="max">
        <route edges="enx1y0nx1y1 enx1y1nx2y1 enx2y1nx2y2 enx2y2nx3y2 enx3y2nx3y3 enx3y3nx3y4 enx3y4nx3y5"/>
    </vehicle>
    <vehicle id="a66" type="vt1" depart="198.00" departLane="best" departPos="base" departSpeed="max" arrivalPos="max">
        <route edges="enx0y2nx1y2 enx1y2nx2y2 enx2y2nx3y2 enx3y2nx4y2 enx4y2nx5y2"/>
    </vehicle>
    <vehicle id="a67" type="vt1" depart="201.00" departLane="best" departPos="base" departSpeed="max" arrivalPos="max">
        <route edges="enx0y2nx1y2 enx1y2nx2y2 enx2y2nx2y1 enx2y1nx3y1 enx3y1nx4y1 enx4y1nx5y1"/>
    </vehicle>
    <vehicle id="a68" type="vt1" depart="204.00" departLane="best" departPos="base" departSpeed="max" arrivalPos="max">
        <route edges="enx3y0nx3y1 enx3y1nx2y1 enx2y1nx2y2 enx2y2nx2y3 enx2y3nx1y3 enx1y3nx1y4 enx1y4nx1y5"/>
    </vehicle>
    <vehicle id="a69" type="vt1" depart="207.00" departLane="best" departPos="base" departSpeed="max" arrivalPos="max">
        <route edges="enx2y5nx2y4 enx2y4nx2y3 enx2y3nx2y2 enx2y2nx2y1 enx2y1nx3y1 enx3y1nx4y1 enx4y1nx4y0"/>
    </vehicle>
    <vehicle id="a70" type="vt1" depart="210.00" departLane="best" departPos="base" departSpeed="max" arrivalPos="max">
        <route edges="enx3y5nx3y4 enx3y4nx3y3 enx3y3nx3y2 enx3y2nx3y1 enx3y1nx3y0"/>
    </vehicle>
    <vehicle id="a71" type="vt1" depart="213.00" departLane="best" departPos="base" departSpeed="max" arrivalPos="max">
        <route edges="enx2y5nx2y4 enx2y4nx2y3 enx2y3nx2y2 enx2y2nx2y1 enx2y1nx3y1 enx3y1nx4y1 enx4y1nx5y1"/>
    </vehicle>
    <vehicle id="a72" type="vt1" depart="216.00" departLane="best" departPos="base" departSpeed="max" arrivalPos="max">
        <route edges="enx3y5nx3y4 enx3y4nx3y3 enx3y3nx3y2 enx3y2nx2y2 enx2y2nx2y1 enx2y1nx2y0"/>
    </vehicle>
    <vehicle id="a73" type="vt1" depart="219.00" departLane="best" departPos="base" departSpeed="max" arrivalPos="max">
        <route edges="enx3y5nx3y4 enx3y4nx4y4 enx4y4nx4y3 enx4y3nx4y2 enx4y2nx4y1 enx4y1nx4y0"/>
    </vehicle>
    <vehicle id="a74" type="vt1" depart="222.00" departLane="best" departPos="base" departSpeed="max" arrivalPos="max">
        <route edges="enx2y0nx2y1 enx2y1nx2y2 enx2y2nx2y3 enx2y3nx1y3 enx1y3nx1y4 enx1y4nx1y5"/>
    </vehicle>
    <vehicle id="a75" type="vt1" depart="225.00" departLane="best" departPos="base" departSpeed="max" arrivalPos="max">
        <route edges="enx4y0nx4y1 enx4y1nx4y2 enx4y2nx4y3 enx4y3nx4y4 enx4y4nx3y4 enx3y4nx3y5"/>
    </vehicle>
    <vehicle id="a76" type="vt1" depart="228.00" departLane="best" departPos="base" departSpeed="max" arrivalPos="max">
        <route edges="enx5y3nx4y3 enx4y3nx3y3 enx3y3nx2y3 enx2y3nx1y3 enx1y3nx1y4 enx1y4nx0y4"/>
    </vehicle>
    <vehicle id="a77" type="vt1" depart="231.00" departLane="best" departPos="base" departSpeed="max" arrivalPos="max">
        <route edges="enx0y2nx1y2 enx1y2nx1y3 enx1y3nx2y3 enx2y3nx3y3 enx3y3nx4y3 enx4y3nx5y3"/>
    </vehicle>
    <vehicle id="a78" type="vt1" depart="234.00" departLane="best" departPos="base" departSpeed="max" arrivalPos="max">
        <route edges="enx3y0nx3y1 enx3y1nx2y1 enx2y1nx2y2 enx2y2nx2y3 enx2y3nx1y3 enx1y3nx1y4 enx1y4nx1y5"/>
    </vehicle>
    <vehicle id="a79" type="vt1" depart="237.00" departLane="best" departPos="base" departSpeed="max" arrivalPos="max">
        <route edges="enx0y3nx1y3 enx1y3nx2y3 enx2y3nx2y2 enx2y2nx2y1 enx2y1nx3y1 enx3y1nx4y1 enx4y1nx4y0"/>
    </vehicle>
    <vehicle id="a80" type="vt1" depart="240.00" departLane="best" departPos="base" departSpeed="max" arrivalPos="max">
        <route edges="enx1y0nx1y1 enx1y1nx2y1 enx2y1nx2y2 enx2y2nx3y2 enx3y2nx3y3 enx3y3nx3y4 enx3y4nx3y5"/>
    </vehicle>
    <vehicle id="a81" type="vt1" depart="243.00" departLane="best" departPos="base" departSpeed="max" arrivalPos="max">
        <route edges="enx0y4nx1y4 enx1y4nx1y3 enx1y3nx2y3 enx2y3nx2y2 enx2y2nx2y1 enx2y1nx3y1 enx3y1nx3y0"/>
    </vehicle>
    <vehicle id="a82" type="vt1" depart="246.00" departLane="best" departPos="base" departSpeed="max" arrivalPos="max">
        <route edges="enx0y3nx1y3 enx1y3nx2y3 enx2y3nx3y3 enx3y3nx4y3 enx4y3nx4y2 enx4y2nx5y2"/>
    </vehicle>
    <vehicle id="a83" type="vt1" depart="249.00" departLane="best" departPos="base" departSpeed="max" arrivalPos="max">
        <route edges="enx5y2nx4y2 enx4y2nx4y3 enx4y3nx3y3 enx3y3nx2y3 enx2y3nx1y3 enx1y3nx1y4 enx1y4nx1y5"/>
    </vehicle>
    <vehicle id="a84" type="vt1" depart="252.00" departLane="best" departPos="base" departSpeed="max" arrivalPos="max">
        <route edges="enx0y4nx1y4 enx1y4nx2y4 enx2y4nx3y4 enx3y4nx4y4 enx4y4nx5y4"/>
    </vehicle>
    <vehicle id="a85" type="vt1" depart="255.00" departLane="best" departPos="base" departSpeed="max" arrivalPos="max">
        <route edges="enx0y1nx1y1 enx1y1nx2y1 enx2y1nx2y2 enx2y2nx3y2 enx3y2nx3y3 enx3y3nx4y3 enx4y3nx4y4 enx4y4nx4y5"/>
    </vehicle>
    <vehicle id="a86" type="vt1" depart="258.00" departLane="best" departPos="base" departSpeed="max" arrivalPos="max">
        <route edges="enx5y1nx4y1 enx4y1nx3y1 enx3y1nx2y1 enx2y1nx2y2 enx2y2nx2y3 enx2y3nx1y3 enx1y3nx0y3"/>
    </vehicle>
    <vehicle id="a87" type="vt1" depart="261.00" departLane="best" departPos="base" departSpeed="max" arrivalPos="max">
        <route edges="enx0y3nx1y3 enx1y3nx2y3 enx2y3nx2y2 enx2y2nx2y1 enx2y1nx3y1 enx3y1nx4y1 enx4y1nx5y1"/>
    </vehicle>
    <vehicle id="a88" type="vt1" depart="264.00" departLane="best" departPos="base" departSpeed="max" arrivalPos="max">
        <route edges="enx1y5nx1y4 enx1y4nx1y3 enx1y3nx2y3 enx2y3nx2y2 enx2y2nx2y1 enx2y1nx3y1 enx3y1nx4y1 enx4y1nx5y1"/>
    </vehicle>
    <vehicle id="a89" type="vt1" depart="267.00" departLane="best" departPos="base" departSpeed="max" arrivalPos="max">
        <route edges="enx0y4nx1y4 enx1y4nx1y3 enx1y3nx2y3 enx2y3nx2y2 enx2y2nx2y1 enx2y1nx3y1 enx3y1nx4y1 enx4y1nx5y1"/>
    </vehicle>
    <vehicle id="a90" type="vt1" depart="270.00" departLane="best" departPos="base" departSpeed="max" arrivalPos="max">
        <route edges="enx2y5nx2y4 enx2y4nx2y3 enx2y3nx1y3 enx1y3nx1y2 enx1y2nx1y1 enx1y1nx1y0"/>
    </vehicle>
    <vehicle id="a91" type="vt1" depart="273.00" departLane="best" departPos="base" departSpeed="max" arrivalPos="max">
        <route edges="enx0y2nx1y2 enx1y2nx2y2 enx2y2nx2y1 enx2y1nx3y1 enx3y1nx4y1 enx4y1nx5y1"/>
    </vehicle>
    <vehicle id="a92" type="vt1" depart="276.00" departLane="best" departPos="base" departSpeed="max" arrivalPos="max">
        <route edges="enx2y5nx2y4 enx2y4nx2y3 enx2y3nx2y2 enx2y2nx2y1 enx2y1nx2y0"/>
    </vehicle>
    <vehicle id="a93" type="vt1" depart="279.00" departLane="best" departPos="base" departSpeed="max" arrivalPos="max">
        <route edges="enx5y4nx4y4 enx4y4nx4y3 enx4y3nx3y3 enx3y3nx3y2 enx3y2nx2y2 enx2y2nx2y1 enx2y1nx1y1 enx1y1nx0y1"/>
    </vehicle>
    <vehicle id="a94" type="vt1" depart="282.00" departLane="best" departPos="base" departSpeed="max" arrivalPos="max">
        <route edges="enx1y5nx1y4 enx1y4nx1y3 enx1y3nx2y3 enx2y3nx2y2 enx2y2nx2y1 enx2y1nx2y0"/>
    </vehicle>
    <vehicle id="a95" type="vt1" depart="285.00" departLane="best" departPos="base" departSpeed="max" arrivalPos="max">
        <route edges="enx2y0nx2y1 enx2y1nx2y2 enx2y2nx3y2 enx3y2nx3y3 enx3y3nx4y3 enx4y3nx4y4 enx4y4nx4y5"/>
    </vehicle>
    <vehicle id="a96" type="vt1" depart="288.00" departLane="best" departPos="base" departSpeed="max" arrivalPos="max">
        <route edges="enx5y1nx4y1 enx4y1nx3y1 enx3y1nx2y1 enx2y1nx2y2 enx2y2nx1y2 enx1y2nx0y2"/>
    </vehicle>
    <vehicle id="a97" type="vt1" depart="291.00" departLane="best" departPos="base" departSpeed="max" arrivalPos="max">
        <route edges="enx5y3nx4y3 enx4y3nx3y3 enx3y3nx3y2 enx3y2nx2y2 enx2y2nx2y1 enx2y1nx1y1 enx1y1nx0y1"/>
    </vehicle>
    <vehicle id="a98" type="vt1" depart="294.00" departLane="best" departPos="base" departSpeed="max" arrivalPos="max">
        <route edges="enx0y3nx1y3 enx1y3nx2y3 enx2y3nx2y2 enx2y2nx2y1 enx2y1nx3y1 enx3y1nx4y1 enx4y1nx4y0"/>
    </vehicle>
    <vehicle id="a99" type="vt1" depart="297.00" departLane="best" departPos="base" departSpeed="max" arrivalPos="max">
        <route edges="enx5y2nx4y2 enx4y2nx4y1 enx4y1nx3y1 enx3y1nx2y1 enx2y1nx1y1 enx1y1nx0y1"/>
    </vehicle>
    <vehicle id="a100" type="vt1" depart="300.00" departLane="best" departPos="base" departSpeed="max" arrivalPos="max">
        <route edges="enx4y0nx4y1 enx4y1nx3y1 enx3y1nx2y1 enx2y1nx2y2 enx2y2nx2y3 enx2y3nx1y3 enx1y3nx0y3"/>
    </vehicle>
    <vehicle id="a101" type="vt1" depart="303.00" departLane="best" departPos="base" departSpeed="max" arrivalPos="max">
        <route edges="enx0y1nx1y1 enx1y1nx2y1 enx2y1nx2y2 enx2y2nx3y2 enx3y2nx3y3 enx3y3nx4y3 enx4y3nx4y4 enx4y4nx4y5"/>
    </vehicle>
    <vehicle id="a102" type="vt1" depart="306.00" departLane="best" departPos="base" departSpeed="max" arrivalPos="max">
        <route edges="enx3y5nx3y4 enx3y4nx3y3 enx3y3nx3y2 enx3y2nx3y1 enx3y1nx3y0"/>
    </vehicle>
    <vehicle id="a103" type="vt1" depart="309.00" departLane="best" departPos="base" departSpeed="max" arrivalPos="max">
        <route edges="enx1y5nx1y4 enx1y4nx1y3 enx1y3nx2y3 enx2y3nx2y2 enx2y2nx2y1 enx2y1nx2y0"/>
    </vehicle>
    <vehicle id="a104" type="vt1" depart="312.00" departLane="best" departPos="base" departSpeed="max" arrivalPos="max">
        <route edges="enx1y0nx1y1 enx1y1nx2y1 enx2y1nx2y2 enx2y2nx3y2 enx3y2nx3y3 enx3y3nx4y3 enx4y3nx4y4 enx4y4nx5y4"/>
    </vehicle>
    <vehicle id="a105" type="vt1" depart="315.00" departLane="best" departPos="base" departSpeed="max" arrivalPos="max">
        <route edges="enx5y1nx4y1 enx4y1nx3y1 enx3y1nx2y1 enx2y1nx2y2 enx2y2nx2y3 enx2y3nx2y4 enx2y4nx2y5"/>
    </vehicle>
    <vehicle id="a106" type="vt1" depart="318.00" departLane="best" departPos="base" departSpeed="max" arrivalPos="max">
        <route edges="enx2y0nx2y1 enx2y1nx2y2 enx2y2nx3y2 enx3y2nx3y3 enx3y3nx4y3 enx4y3nx4y4 enx4y4nx5y4"/>
    </vehicle>
    <vehicle id="a107" type="vt1" depart="321.00" departLane="best" departPos="base" departSpeed="max" arrivalPos="max">
        <route edges="enx5y3nx4y3 enx4y3nx3y3 enx3y3nx3y2 enx3y2nx2y2 enx2y2nx2y1 enx2y1nx1y1 enx1y1nx0y1"/>
    </vehicle>
    <vehicle id="a108" type="vt1" depart="324.00" departLane="best" departPos="base" departSpeed="max" arrivalPos="max">
        <route edges="enx0y3nx1y3 enx1y3nx2y3 enx2y3nx3y3 enx3y3nx4y3 enx4y3nx4y2 enx4y2nx5y2"/>
    </vehicle>
    <vehicle id="a109" type="vt1" depart="327.00" departLane="best" departPos="base" departSpeed="max" arrivalPos="max">
        <route edges="enx3y5nx3y4 enx3y4nx3y3 enx3y3nx3y2 enx3y2nx2y2 enx2y2nx2y1 enx2y1nx1y1 enx1y1nx1y0"/>
    </vehicle>
    <vehicle id="a110" type="vt1" depart="330.00" departLane="best" departPos="base" departSpeed="max" arrivalPos="max">
        <route edges="enx4y0nx4y1 enx4y1nx3y1 enx3y1nx2y1 enx2y1nx2y2 enx2y2nx2y3 enx2y3nx2y4 enx2y4nx2y5"/>
    </vehicle>
    <vehicle id="a111" type="vt1" depart="333.00" departLane="best" departPos="base" departSpeed="max" arrivalPos="max">
        <route edges="enx3y0nx3y1 enx3y1nx4y1 enx4y1nx4y2 enx4y2nx4y3 enx4y3nx4y4 enx4y4nx4y5"/>
    </vehicle>
    <vehicle id="a112" type="vt1" depart="336.00" departLane="best" departPos="base" departSpeed="max" arrivalPos="max">
        <route edges="enx5y2nx4y2 enx4y2nx4y3 enx4y3nx3y3 enx3y3nx2y3 enx2y3nx1y3 enx1y3nx1y4 enx1y4nx0y4"/>
    </vehicle>
    <vehicle id="a113" type="vt1" depart="339.00" departLane="best" departPos="base" departSpeed="max" arrivalPos="max">
        <route edges="enx4y0nx4y1 enx4y1nx3y1 enx3y1nx2y1 enx2y1nx2y2 enx2y2nx2y3 enx2y3nx1y3 enx1y3nx1y4 enx1y4nx1y5"/>
    </vehicle>
    <vehicle id="a114" type="vt1" depart="342.00" departLane="best" departPos="base" departSpeed="max" arrivalPos="max">
        <route edges="enx1y0nx1y1 enx1y1nx1y2 enx1y2nx1y3 enx1y3nx1y4 enx1y4nx1y5"/>
    </vehicle>
    <vehicle id="a115" type="vt1" depart="345.00" departLane="best" departPos="base" departSpeed="max" arrivalPos="max">
        <route edges="enx1y5nx1y4 enx1y4nx1y3 enx1y3nx2y3 enx2y3nx2y2 enx2y2nx2y1 enx2y1nx3y1 enx3y1nx4y1 enx4y1nx5y1"/>
    </vehicle>
    <vehicle id="a116" type="vt1" depart="348.00" departLane="best" departPos="base" departSpeed="max" arrivalPos="max">
        <route edges="enx0y2nx1y2 enx1y2nx1y3 enx1y3nx2y3 enx2y3nx3y3 enx3y3nx4y3 enx4y3nx4y4 enx4y4nx5y4"/>
    </vehicle>
    <vehicle id="a117" type="vt1" depart="351.00" departLane="best" departPos="base" departSpeed="max" arrivalPos="max">
        <route edges="enx2y0nx2y1 enx2y1nx2y2 enx2y2nx2y3 enx2y3nx2y4 enx2y4nx2y5"/>
    </vehicle>
    <vehicle id="a118" type="vt1" depart="354.00" departLane="best" departPos="base" departSpeed="max" arrivalPos="max">
        <route edges="enx3y0nx3y1 enx3y1nx2y1 enx2y1nx2y2 enx2y2nx2y3 enx2y3nx1y3 enx1y3nx1y4 enx1y4nx0y4"/>
    </vehicle>
    <vehicle id="a119" type="vt1" depart="357.00" departLane="best" departPos="base" departSpeed="max" arrivalPos="max">
        <route edges="enx1y0nx1y1 enx1y1nx2y1 enx2y1nx2y2 enx2y2nx3y2 enx3y2nx3y3 enx3y3nx4y3 enx4y3nx4y4 enx4y4nx4y5"/>
    </vehicle>
    <vehicle id="a120" type="vt1" depart="360.00" departLane="best" departPos="base" departSpeed="max" arrivalPos="max">
        <route edges="enx5y4nx4y4 enx4y4nx3y4 enx3y4nx2y4 enx2y4nx1y4 enx1y4nx0y4"/>
    </vehicle>