<?xml version="1.0"?>
<!-- generated on 2017-04-04 23:11:58.308838 by $Id: randomTrips.py 21557 2016-09-28 10:43:52Z luecken $
  options: -b 0 -e 2000 -n net.cnd.tls.net.xml -p 3 -o net.trips.xml <doubleminus>prefix=a <doubleminus>trip-attributes=type="vt1" departLane="best" departSpeed="max" departPos="base" arrivalPos="max" <doubleminus>additional-files=vtype.add.xml <doubleminus>min-distance=2400 <doubleminus>fringe-factor 100 <doubleminus>seed 1
-->
<trips>
    <trip id="a0" depart="0.00" from="enx5y1nx4y1" to="enx1y4nx0y4" type="vt1" departLane="best" departSpeed="max" departPos="base" arrivalPos="max"/>
    <trip id="a1" depart="3.00" from="enx2y5nx2y4" to="enx4y1nx5y1" type="vt1" departLane="best" departSpeed="max" departPos="base" arrivalPos="max"/>
    <trip id="a2" depart="6.00" from="enx0y4nx1y4" to="enx4y4nx5y4" type="vt1" departLane="best" departSpeed="max" departPos="base" arrivalPos="max"/>
    <trip id="a3" depart="9.00" from="enx5y3nx4y3" to="enx1y1nx0y1" type="vt1" departLane="best" departSpeed="max" departPos="base" arrivalPos="max"/>
    <trip id="a4" depart="12.00" from="enx4y0nx4y1" to="enx1y3nx0y3" type="vt1" departLane="best" departSpeed="max" departPos="base" arrivalPos="max"/>
    <trip id="a5" depart="15.00" from="enx1y0nx1y1" to="enx3y4nx3y5" type="vt1" departLane="best" departSpeed="max" departPos="base" arrivalPos="max"/>
    <trip id="a6" depart="18.00" from="enx3y0nx3y1" to="enx3y4nx3y5" type="vt1" departLane="best" departSpeed="max" departPos="base" arrivalPos="max"/>
    <trip id="a7" depart="21.00" from="enx4y5nx4y4" to="enx4y1nx4y0" type="vt1" departLane="best" departSpeed="max" departPos="base" arrivalPos="max"/>
    <trip id="a8" depart="24.00" from="enx2y0nx2y1" to="enx2y4nx2y5" type="vt1" departLane="best" departSpeed="max" departPos="base" arrivalPos="max"/>
    <trip id="a9" depart="27.00" from="enx5y2nx4y2" to="enx1y3nx0y3" type="vt1" departLane="best" departSpeed="max" departPos="base" arrivalPos="max"/>
    <trip id="a10" depart="30.00" from="enx5y4nx4y4" to="enx1y1nx0y1" type="vt1" departLane="best" departSpeed="max" departPos="base" arrivalPos="max"/>
    <trip id="a11" depart="33.00" from="enx0y1nx1y1" to="enx4y3nx5y3" type="vt1" departLane="best" departSpeed="max" departPos="base" arrivalPos="max"/>
    <trip id="a12" depart="36.00" from="enx3y0nx3y1" to="enx2y4nx2y5" type="vt1" departLane="best" departSpeed="max" departPos="base" arrivalPos="max"/>
    <trip id="a13" depart="39.00" from="enx3y0nx3y1" to="enx3y4nx3y5" type="vt1" departLane="best" departSpeed="max" departPos="base" arrivalPos="max"/>
    <trip id="a14" depart="42.00" from="enx1y0nx1y1" to="enx4y3nx5y3" type="vt1" departLane="best" departSpeed="max" departPos="base" arrivalPos="max"/>
    <trip id="a15" depart="45.00" from="enx1y5nx1y4" to="enx1y1nx1y0" type="vt1" departLane="best" departSpeed="max" departPos="base" arrivalPos="max"/>
    <trip id="a16" depart="48.00" from="enx0y2nx1y2" to="enx4y4nx4y5" type="vt1" departLane="best" departSpeed="max" departPos="base" arrivalPos="max"/>
    <trip id="a17" depart="51.00" from="enx0y3nx1y3" to="enx4y1nx5y1" type="vt1" departLane="best" departSpeed="max" departPos="base" arrivalPos="max"/>
    <trip id="a18" depart="54.00" from="enx0y3nx1y3" to="enx4y1nx5y1" type="vt1" departLane="best" departSpeed="max" departPos="base" arrivalPos="max"/>
    <trip id="a19" depart="57.00" from="enx0y4nx1y4" to="enx4y4nx5y4" type="vt1" departLane="best" departSpeed="max" departPos="base" arrivalPos="max"/>
    <trip id="a20" depart="60.00" from="enx0y4nx1y4" to="enx4y1nx4y0" type="vt1" departLane="best" departSpeed="max" departPos="base" arrivalPos="max"/>
    <trip id="a21" depart="63.00" from="enx2y0nx2y1" to="enx3y4nx3y5" type="vt1" departLane="best" departSpeed="max" departPos="base" arrivalPos="max"/>
    <trip id="a22" depart="66.00" from="enx1y5nx1y4" to="enx4y1nx4y0" type="vt1" departLane="best" departSpeed="max" departPos="base" arrivalPos="max"/>
    <trip id="a23" depart="69.00" from="enx4y5nx4y4" to="enx2y1nx2y0" type="vt1" departLane="best" departSpeed="max" departPos="base" arrivalPos="max"/>
    <trip id="a24" depart="72.00" from="enx5y3nx4y3" to="enx1y1nx0y1" type="vt1" departLane="best" departSpeed="max" departPos="base" arrivalPos="max"/>
    <trip id="a25" depart="75.00" from="enx4y5nx4y4" to="enx3y1nx3y0" type="vt1" departLane="best" departSpeed="max" departPos="base" arrivalPos="max"/>
    <trip id="a26" depart="78.00" from="enx2y0nx2y1" to="enx1y4nx1y5" type="vt1" departLane="best" departSpeed="max" departPos="base" arrivalPos="max"/>
    <trip id="a27" depart="81.00" from="enx0y4nx1y4" to="enx4y1nx4y0" type="vt1" departLane="best" departSpeed="max" departPos="base" arrivalPos="max"/>
    <trip id="a28" depart="84.00" from="enx5y3nx4y3" to="enx1y1nx0y1" type="vt1" departLane="best" departSpeed="max" departPos="base" arrivalPos="max"/>
    <trip id="a29" depart="87.00" from="enx0y4nx1y4" to="enx4y1nx5y1" type="vt1" departLane="best" departSpeed="max" departPos="base" arrivalPos="max"/>
    <trip id="a30" depart="90.00" from="enx5y2nx4y2" to="enx1y4nx1y5" type="vt1" departLane="best" departSpeed="max" departPos="base" arrivalPos="max"/>
    <trip id="a31" depart="93.00" from="enx0y2nx1y2" to="enx4y3nx5y3" type="vt1" departLane="best" departSpeed="max" departPos="base" arrivalPos="max"/>
    <trip id="a32" depart="96.00" from="enx5y2nx4y2" to="enx1y1nx0y1" type="vt1" departLane="best" departSpeed="max" departPos="base" arrivalPos="max"/>
    <trip id="a33" depart="99.00" from="enx0y2nx1y2" to="enx4y4nx4y5" type="vt1" departLane="best" departSpeed="max" departPos="base" arrivalPos="max"/>
    <trip id="a34" depart="102.00" from="enx5y4nx4y4" to="enx2y1nx2y0" type="vt1" departLane="best" departSpeed="max" departPos="base" arrivalPos="max"/>
    <trip id="a35" depart="105.00" from="enx0y4nx1y4" to="enx4y1nx5y1" type="vt1" departLane="best" departSpeed="max" departPos="base" arrivalPos="max"/>
    <trip id="a36" depart="108.00" from="enx0y2nx1y2" to="enx4y4nx4y5" type="vt1" departLane="best" departSpeed="max" departPos="base" arrivalPos="max"/>
    <trip id="a37" depart="111.00" from="enx2y0nx2y1" to="enx4y4nx5y4" type="vt1" departLane="best" departSpeed="max" departPos="base" arrivalPos="max"/>
    <trip id="a38" depart="114.00" from="enx5y3nx4y3" to="enx1y4nx0y4" type="vt1" departLane="best" departSpeed="max" departPos="base" arrivalPos="max"/>
    <trip id="a39" depart="117.00" from="enx1y0nx1y1" to="enx2y4nx2y5" type="vt1" departLane="best" departSpeed="max" departPos="base" arrivalPos="max"/>
    <trip id="a40" depart="120.00" from="enx5y4nx4y4" to="enx1y4nx0y4" type="vt1" departLane="best" departSpeed="max" departPos="base" arrivalPos="max"/>
    <trip id="a41" depart="123.00" from="enx1y5nx1y4" to="enx1y1nx1y0" type="vt1" departLane="best" departSpeed="max" departPos="base" arrivalPos="max"/>
    <trip id="a42" depart="126.00" from="enx5y4nx4y4" to="enx1y1nx1y0" type="vt1" departLane="best" departSpeed="max" departPos="base" arrivalPos="max"/>
    <trip id="a43" depart="129.00" from="enx5y4nx4y4" to="enx2y1nx2y0" type="vt1" departLane="best" departSpeed="max" departPos="base" arrivalPos="max"/>
    <trip id="a44" depart="132.00" from="enx5y3nx4y3" to="enx1y4nx0y4" type="vt1" departLane="best" departSpeed="max" departPos="base" arrivalPos="max"/>
    <trip id="a45" depart="135.00" from="enx1y5nx1y4" to="enx3y1nx3y0" type="vt1" departLane="best" departSpeed="max" departPos="base" arrivalPos="max"/>
    <trip id="a46" depart="138.00" from="enx5y4nx4y4" to="enx1y2nx0y2" type="vt1" departLane="best" departSpeed="max" departPos="base" arrivalPos="max"/>
    <trip id="a47" depart="141.00" from="enx5y2nx4y2" to="enx1y4nx1y5" type="vt1" departLane="best" departSpeed="max" departPos="base" arrivalPos="max"/>
    <trip id="a48" depart="144.00" from="enx5y3nx4y3" to="enx1y4nx0y4" type="vt1" departLane="best" departSpeed="max" departPos="base" arrivalPos="max"/>
    <trip id="a49" depart="147.00" from="enx5y3nx4y3" to="enx1y2nx0y2" type="vt1" departLane="best" departSpeed="max" departPos="base" arrivalPos="max"/>
    <trip id="a50" depart="150.00" from="enx5y3nx4y3" to="enx1y1nx0y1" type="vt1" departLane="best" departSpeed="max" departPos="base" arrivalPos="max"/>
    <trip id="a51" depart="153.00" from="enx4y5nx4y4" to="enx4y1nx4y0" type="vt1" departLane="best" departSpeed="max" departPos="base" arrivalPos="max"/>
    <trip id="a52" depart="156.00" from="enx2y0nx2y1" to="enx1y4nx1y5" type="vt1" departLane="best" departSpeed="max" departPos="base" arrivalPos="max"/>
    <trip id="a53" depart="159.00" from="enx3y5nx3y4" to="enx1y1nx1y0" type="vt1" departLane="best" departSpeed="max" departPos="base" arrivalPos="max"/>
    <trip id="a54" depart="162.00" from="enx2y0nx2y1" to="enx3y4nx3y5" type="vt1" departLane="best" departSpeed="max" departPos="base" arrivalPos="max"/>
    <trip id="a55" depart="165.00" from="enx0y3nx1y3" to="enx4y2nx5y2" type="vt1" departLane="best" departSpeed="max" departPos="base" arrivalPos="max"/>
    <trip id="a56" depart="168.00" from="enx1y5nx1y4" to="enx3y1nx3y0" type="vt1" departLane="best" departSpeed="max" departPos="base" arrivalPos="max"/>
    <trip id="a57" depart="171.00" from="enx0y3nx1y3" to="enx4y1nx5y1" type="vt1" departLane="best" departSpeed="max" departPos="base" arrivalPos="max"/>
    <trip id="a58" depart="174.00" from="enx0y1nx1y1" to="enx4y4nx5y4" type="vt1" departLane="best" departSpeed="max" departPos="base" arrivalPos="max"/>
    <trip id="a59" depart="177.00" from="enx1y0nx1y1" to="enx4y4nx4y5" type="vt1" departLane="best" departSpeed="max" departPos="base" arrivalPos="max"/>
    <trip id="a60" depart="180.00" from="enx5y4nx4y4" to="enx1y2nx0y2" type="vt1" departLane="best" departSpeed="max" departPos="base" arrivalPos="max"/>
    <trip id="a61" depart="183.00" from="enx5y4nx4y4" to="enx2y1nx2y0" type="vt1" departLane="best" departSpeed="max" departPos="base" arrivalPos="max"/>
    <trip id="a62" depart="186.00" from="enx5y4nx4y4" to="enx1y1nx1y0" type="vt1" departLane="best" departSpeed="max" departPos="base" arrivalPos="max"/>
    <trip id="a63" depart="189.00" from="enx3y5nx3y4" to="enx2y1nx2y0" type="vt1" departLane="best" departSpeed="max" departPos="base" arrivalPos="max"/>
    <trip id="a64" depart="192.00" from="enx5y2nx4y2" to="enx1y3nx0y3" type="vt1" departLane="best" departSpeed="max" departPos="base" arrivalPos="max"/>
    <trip id="a65" depart="195.00" from="enx1y0nx1y1" to="enx3y4nx3y5" type="vt1" departLane="best" departSpeed="max" departPos="base" arrivalPos="max"/>
    <trip id="a66" depart="198.00" from="enx0y2nx1y2" to="enx4y2nx5y2" type="vt1" departLane="best" departSpeed="max" departPos="base" arrivalPos="max"/>
    <trip id="a67" depart="201.00" from="enx0y2nx1y2" to="enx4y1nx5y1" type="vt1" departLane="best" departSpeed="max" departPos="base" arrivalPos="max"/>
    <trip id="a68" depart="204.00" from="enx3y0nx3y1" to="enx1y4nx1y5" type="vt1" departLane="best" departSpeed="max" departPos="base" arrivalPos="max"/>
    <trip id="a69" depart="207.00" from="enx2y5nx2y4" to="enx4y1nx4y0" type="vt1" departLane="best" departSpeed="max" departPos="base" arrivalPos="max"/>
    <trip id="a70" depart="210.00" from="enx3y5nx3y4" to="enx3y1nx3y0" type="vt1" departLane="best" departSpeed="max" departPos="base" arrivalPos="max"/>
    <trip id="a71" depart="213.00" from="enx2y5nx2y4" to="enx4y1nx5y1" type="vt1" departLane="best" departSpeed="max" departPos="base" arrivalPos="max"/>
    <trip id="a72" depart="216.00" from="enx3y5nx3y4" to="enx2y1nx2y0" type="vt1" departLane="best" departSpeed="max" departPos="base" arrivalPos="max"/>
    <trip id="a73" depart="219.00" from="enx3y5nx3y4" to="enx4y1nx4y0" type="vt1" departLane="best" departSpeed="max" departPos="base" arrivalPos="max"/>
    <trip id="a74" depart="222.00" from="enx2y0nx2y1" to="enx1y4nx1y5" type="vt1" departLane="best" departSpeed="max" departPos="base" arrivalPos="max"/>
    <trip id="a75" depart="225.00" from="enx4y0nx4y1" to="enx3y4nx3y5" type="vt1" departLane="best" departSpeed="max" departPos="base" arrivalPos="max"/>
    <trip id="a76" depart="228.00" from="enx5y3nx4y3" to="enx1y4nx0y4" type="vt1" departLane="best" departSpeed="max" departPos="base" arrivalPos="max"/>
    <trip id="a77" depart="231.00" from="enx0y2nx1y2" to="enx4y3nx5y3" type="vt1" departLane="best" departSpeed="max" departPos="base" arrivalPos="max"/>
    <trip id="a78" depart="234.00" from="enx3y0nx3y1" to="enx1y4nx1y5" type="vt1" departLane="best" departSpeed="max" departPos="base" arrivalPos="max"/>
    <trip id="a79" depart="237.00" from="enx0y3nx1y3" to="enx4y1nx4y0" type="vt1" departLane="best" departSpeed="max" departPos="base" arrivalPos="max"/>
    <trip id="a80" depart="240.00" from="enx1y0nx1y1" to="enx3y4nx3y5" type="vt1" departLane="best" departSpeed="max" departPos="base" arrivalPos="max"/>
    <trip id="a81" depart="243.00" from="enx0y4nx1y4" to="enx3y1nx3y0" type="vt1" departLane="best" departSpeed="max" departPos="base" arrivalPos="max"/>
    <trip id="a82" depart="246.00" from="enx0y3nx1y3" to="enx4y2nx5y2" type="vt1" departLane="best" departSpeed="max" departPos="base" arrivalPos="max"/>
    <trip id="a83" depart="249.00" from="enx5y2nx4y2" to="enx1y4nx1y5" type="vt1" departLane="best" departSpeed="max" departPos="base" arrivalPos="max"/>
    <trip id="a84" depart="252.00" from="enx0y4nx1y4" to="enx4y4nx5y4" type="vt1" departLane="best" departSpeed="max" departPos="base" arrivalPos="max"/>
    <trip id="a85" depart="255.00" from="enx0y1nx1y1" to="enx4y4nx4y5" type="vt1" departLane="best" departSpeed="max" departPos="base" arrivalPos="max"/>
    <trip id="a86" depart="258.00" from="enx5y1nx4y1" to="enx1y3nx0y3" type="vt1" departLane="best" departSpeed="max" departPos="base" arrivalPos="max"/>
    <trip id="a87" depart="261.00" from="enx0y3nx1y3" to="enx4y1nx5y1" type="vt1" departLane="best" departSpeed="max" departPos="base" arrivalPos="max"/>
    <trip id="a88" depart="264.00" from="enx1y5nx1y4" to="enx4y1nx5y1" type="vt1" departLane="best" departSpeed="max" departPos="base" arrivalPos="max"/>
    <trip id="a89" depart="267.00" from="enx0y4nx1y4" to="enx4y1nx5y1" type="vt1" departLane="best" departSpeed="max" departPos="base" arrivalPos="max"/>
    <trip id="a90" depart="270.00" from="enx2y5nx2y4" to="enx1y1nx1y0" type="vt1" departLane="best" departSpeed="max" departPos="base" arrivalPos="max"/>
    <trip id="a91" depart="273.00" from="enx0y2nx1y2" to="enx4y1nx5y1" type="vt1" departLane="best" departSpeed="max" departPos="base" arrivalPos="max"/>
    <trip id="a92" depart="276.00" from="enx2y5nx2y4" to="enx2y1nx2y0" type="vt1" departLane="best" departSpeed="max" departPos="base" arrivalPos="max"/>
    <trip id="a93" depart="279.00" from="enx5y4nx4y4" to="enx1y1nx0y1" type="vt1" departLane="best" departSpeed="max" departPos="base" arrivalPos="max"/>
    <trip id="a94" depart="282.00" from="enx1y5nx1y4" to="enx2y1nx2y0" type="vt1" departLane="best" departSpeed="max" departPos="base" arrivalPos="max"/>
    <trip id="a95" depart="285.00" from="enx2y0nx2y1" to="enx4y4nx4y5" type="vt1" departLane="best" departSpeed="max" departPos="base" arrivalPos="max"/>
    <trip id="a96" depart="288.00" from="enx5y1nx4y1" to="enx1y2nx0y2" type="vt1" departLane="best" departSpeed="max" departPos="base" arrivalPos="max"/>
    <trip id="a97" depart="291.00" from="enx5y3nx4y3" to="enx1y1nx0y1" type="vt1" departLane="best" departSpeed="max" departPos="base" arrivalPos="max"/>
    <trip id="a98" depart="294.00" from="enx0y3nx1y3" to="enx4y1nx4y0" type="vt1" departLane="best" departSpeed="max" departPos="base" arrivalPos="max"/>
    <trip id="a99" depart="297.00" from="enx5y2nx4y2" to="enx1y1nx0y1" type="vt1" departLane="best" departSpeed="max" departPos="base" arrivalPos="max"/>
    <trip id="a100" depart="300.00" from="enx4y0nx4y1" to="enx1y3nx0y3" type="vt1" departLane="best" departSpeed="max" departPos="base" arrivalPos="max"/>
    <trip id="a101" depart="303.00" from="enx0y1nx1y1" to="enx4y4nx4y5" type="vt1" departLane="best" departSpeed="max" departPos="base" arrivalPos="max"/>
    <trip id="a102" depart="306.00" from="enx3y5nx3y4" to="enx3y1nx3y0" type="vt1" departLane="best" departSpeed="max" departPos="base" arrivalPos="max"/>
    <trip id="a103" depart="309.00" from="enx1y5nx1y4" to="enx2y1nx2y0" type="vt1" departLane="best" departSpeed="max" departPos="base" arrivalPos="max"/>
    <trip id="a104" depart="312.00" from="enx1y0nx1y1" to="enx4y4nx5y4" type="vt1" departLane="best" departSpeed="max" departPos="base" arrivalPos="max"/>
    <trip id="a105" depart="315.00" from="enx5y1nx4y1" to="enx2y4nx2y5" type="vt1" departLane="best" departSpeed="max" departPos="base" arrivalPos="max"/>
    <trip id="a106" depart="318.00" from="enx2y0nx2y1" to="enx4y4nx5y4" type="vt1" departLane="best" departSpeed="max" departPos="base" arrivalPos="max"/>
    <trip id="a107" depart="321.00" from="enx5y3nx4y3" to="enx1y1nx0y1" type="vt1" departLane="best" departSpeed="max" departPos="base" arrivalPos="max"/>
    <trip id="a108" depart="324.00" from="enx0y3nx1y3" to="enx4y2nx5y2" type="vt1" departLane="best" departSpeed="max" departPos="base" arrivalPos="max"/>
    <trip id="a109" depart="327.00" from="enx3y5nx3y4" to="enx1y1nx1y0" type="vt1" departLane="best" departSpeed="max" departPos="base" arrivalPos="max"/>
    <trip id="a110" depart="330.00" from="enx4y0nx4y1" to="enx2y4nx2y5" type="vt1" departLane="best" departSpeed="max" departPos="base" arrivalPos="max"/>
    <trip id="a111" depart="333.00" from="enx3y0nx3y1" to="enx4y4nx4y5" type="vt1" departLane="best" departSpeed="max" departPos="base" arrivalPos="max"/>
    <trip id="a112" depart="336.00" from="enx5y2nx4y2" to="enx1y4nx0y4" type="vt1" departLane="best" departSpeed="max" departPos="base" arrivalPos="max"/>
    <trip id="a113" depart="339.00" from="enx4y0nx4y1" to="enx1y4nx1y5" type="vt1" departLane="best" departSpeed="max" departPos="base" arrivalPos="max"/>
    <trip id="a114" depart="342.00" from="enx1y0nx1y1" to="enx1y4nx1y5" type="vt1" departLane="best" departSpeed="max" departPos="base" arrivalPos="max"/>
    <trip id="a115" depart="345.00" from="enx1y5nx1y4" to="enx4y1nx5y1" type="vt1" departLane="best" departSpeed="max" departPos="base" arrivalPos="max"/>
    <trip id="a116" depart="348.00" from="enx0y2nx1y2" to="enx4y4nx5y4" type="vt1" departLane="best" departSpeed="max" departPos="base" arrivalPos="max"/>
    <trip id="a117" depart="351.00" from="enx2y0nx2y1" to="enx2y4nx2y5" type="vt1" departLane="best" departSpeed="max" departPos="base" arrivalPos="max"/>
    <trip id="a118" depart="354.00" from="enx3y0nx3y1" to="enx1y4nx0y4" type="vt1" departLane="best" departSpeed="max" departPos="base" arrivalPos="max"/>
    <trip id="a119" depart="357.00" from="enx1y0nx1y1" to="enx4y4nx4y5" type="vt1" departLane="best" departSpeed="max" departPos="base" arrivalPos="max"/>
    <trip id="a120" depart="360.00" from="enx5y4nx4y4" to="enx1y4nx0y4" type="vt1" departLane="best" departSpeed="max" departPos="base" arrivalPos="max"/>
    <trip id="a121" depart="363.00" from="enx0y4nx1y4" to="enx4y1nx5y1" type="vt1" departLane="best" departSpeed="max" departPos="base" arrivalPos="max"/>
    <trip id="a122" depart="366.00" from="enx2y5nx2y4" to="enx2y1nx2y0" type="vt1" departLane="best" departSpeed="max" departPos="base" arrivalPos="max"/>
    <trip id="a123" depart="369.00" from="enx3y5nx3y4" to="enx1y1nx0y1" type="vt1" departLane="best" departSpeed="max" departPos="base" arrivalPos="max"/>
    <trip id="a124" depart="372.00" from="enx3y5nx3y4" to="enx3y1nx3y0" type="vt1" departLane="best" departSpeed="max" departPos="base" arrivalPos="max"/>
    <trip id="a125" depart="375.00" from="enx3y0nx3y1" to="enx3y4nx3y5" type="vt1" departLane="best" departSpeed="max" departPos="base" arrivalPos="max"/>
    <trip id="a126" depart="378.00" from="enx0y3nx1y3" to="enx4y1nx4y0" type="vt1" departLane="best" departSpeed="max" departPos="base" arrivalPos="max"/>
    <trip id="a127" depart="381.00" from="enx2y0nx2y1" to="enx4y4nx4y5" type="vt1" departLane="best" departSpeed="max" departPos="base" arrivalPos="max"/>
    <trip id="a128" depart="384.00" from="enx2y5nx2y4" to="enx1y1nx1y0" type="vt1" departLane="best" departSpeed="max" departPos="base" arrivalPos="max"/>
    <trip id="a129" depart="387.00" from="enx1y5nx1y4" to="enx2y1nx2y0" type="vt1" departLane="best" departSpeed="max" departPos="base" arrivalPos="max"/>
    <trip id="a130" depart="390.00" from="enx1y0nx1y1" to="enx4y3nx5y3" type="vt1" departLane="best" departSpeed="max" departPos="base" arrivalPos="max"/>
    <trip id="a131" depart="393.00" from="enx5y4nx4y4" to="enx1y4nx0y4" type="vt1" departLane="best" departSpeed="max" departPos="base" arrivalPos="max"/>
    <trip id="a132" depart="396.00" from="enx5y1nx4y1" to="enx2y4nx2y5" type="vt1" departLane="best" departSpeed="max" departPos="base" arrivalPos="max"/>
    <trip id="a133" depart="399.00" from="enx5y4nx4y4" to="enx1y3nx0y3" type="vt1" departLane="best" departSpeed="max" departPos="base" arrivalPos="max"/>
    <trip id="a134" depart="402.00" from="enx5y4nx4y4" to="enx1y1nx1y0" type="vt1" departLane="best" departSpeed="max" departPos="base" arrivalPos="max"/>
    <trip id="a135" depart="405.00" from="enx5y3nx4y3" to="enx1y1nx1y0" type="vt1" departLane="best" departSpeed="max" departPos="base" arrivalPos="max"/>
    <trip id="a136" depart="408.00" from="enx2y0nx2y1" to="enx4y4nx4y5" type="vt1" departLane="best" departSpeed="max" departPos="base" arrivalPos="max"/>
    <trip id="a137" depart="411.00" from="enx0y4nx1y4" to="enx3y1nx3y0" type="vt1" departLane="best" departSpeed="max" departPos="base" arrivalPos="max"/>
    <trip id="a138" depart="414.00" from="enx2y0nx2y1" to="enx4y4nx4y5" type="vt1" departLane="best" departSpeed="max" departPos="base" arrivalPos="max"/>
    <trip id="a139" depart="417.00" from="enx5y4nx4y4" to="enx1y4nx0y4" type="vt1" departLane="best" departSpeed="max" departPos="base" arrivalPos="max"/>
    <trip id="a140" depart="420.00" from="enx5y1nx4y1" to="enx1y4nx1y5" type="vt1" departLane="best" departSpeed="max" departPos="base" arrivalPos="max"/>
    <trip id="a141" depart="423.00" from="enx5y2nx4y2" to="enx1y3nx0y3" type="vt1" departLane="best" departSpeed="max" departPos="base" arrivalPos="max"/>
    <trip id="a142" depart="426.00" from="enx0y4nx1y4" to="enx3y1nx3y0" type="vt1" departLane="best" departSpeed="max" departPos="base" arrivalPos="max"/>
    <trip id="a143" depart="429.00" from="enx3y0nx3y1" to="enx3y4nx3y5" type="vt1" departLane="best" departSpeed="max" departPos="base" arrivalPos="max"/>
    <trip id="a144" depart="432.00" from="enx4y0nx4y1" to="enx1y3nx0y3" type="vt1" departLane="best" departSpeed="max" departPos="base" arrivalPos="max"/>
    <trip id="a145" depart="435.00" from="enx0y2nx1y2" to="enx4y1nx5y1" type="vt1" departLane="best" departSpeed="max" departPos="base" arrivalPos="max"/>
    <trip id="a146" depart="438.00" from="enx2y0nx2y1" to="enx4y4nx4y5" type="vt1" departLane="best" departSpeed="max" departPos="base" arrivalPos="max"/>
    <trip id="a147" depart="441.00" from="enx4y0nx4y1" to="enx1y3nx0y3" type="vt1" departLane="best" departSpeed="max" departPos="base" arrivalPos="max"/>
    <trip id="a148" depart="444.00" from="enx4y0nx4y1" to="enx1y4nx0y4" type="vt1" departLane="best" departSpeed="max" departPos="base" arrivalPos="max"/>
    <trip id="a149" depart="447.00" from="enx3y0nx3y1" to="enx1y4nx1y5" type="vt1" departLane="best" departSpeed="max" departPos="base" arrivalPos="max"/>
    <trip id="a150" depart="450.00" from="enx4y0nx4y1" to="enx3y4nx3y5" type="vt1" departLane="best" departSpeed="max" departPos="base" arrivalPos="max"/>
    <trip id="a151" depart="453.00" from="enx3y0nx3y1" to="enx1y4nx0y4" type="vt1" departLane="best" departSpeed="max" departPos="base" arrivalPos="max"/>
    <trip id="a152" depart="456.00" from="enx2y5nx2y4" to="enx2y1nx2y0" type="vt1" departLane="best" departSpeed="max" departPos="base" arrivalPos="max"/>
    <trip id="a153" depart="459.00" from="enx4y5nx4y4" to="enx4y1nx4y0" type="vt1" departLane="best" departSpeed="max" departPos="base" arrivalPos="max"/>
    <trip id="a154" depart="462.00" from="enx5y3nx4y3" to="enx1y2nx0y2" type="vt1" departLane="best" departSpeed="max" departPos="base" arrivalPos="max"/>
    <trip id="a155" depart="465.00" from="enx2y0nx2y1" to="enx2y4nx2y5" type="vt1" departLane="best" departSpeed="max" departPos="base" arrivalPos="max"/>
    <trip id="a156" depart="468.00" from="enx0y1nx1y1" to="enx4y4nx5y4" type="vt1" departLane="best" departSpeed="max" departPos="base" arrivalPos="max"/>
    <trip id="a157" depart="471.00" from="enx2y0nx2y1" to="enx4y4nx4y5" type="vt1" departLane="best" departSpeed="max" departPos="base" arrivalPos="max"/>
    <trip id="a158" depart="474.00" from="enx2y0nx2y1" to="enx3y4nx3y5" type="vt1" departLane="best" departSpeed="max" departPos="base" arrivalPos="max"/>
    <trip id="a159" depart="477.00" from="enx3y0nx3y1" to="enx1y4nx1y5" type="vt1" departLane="best" departSpeed="max" departPos="base" arrivalPos="max"/>
    <trip id="a160" depart="480.00" from="enx1y0nx1y1" to="enx4y4nx5y4" type="vt1" departLane="best" departSpeed="max" departPos="base" arrivalPos="max"/>
    <trip id="a161" depart="483.00" from="enx0y4nx1y4" to="enx3y1nx4y1" type="vt1" departLane="best" departSpeed="max" departPos="base" arrivalPos="max"/>
    <trip id="a162" depart="486.00" from="enx1y5nx1y4" to="enx4y1nx4y0" type="vt1" departLane="best" departSpeed="max" departPos="base" arrivalPos="max"/>
    <trip id="a163" depart="489.00" from="enx5y1nx4y1" to="enx2y4nx2y5" type="vt1" departLane="best" departSpeed="max" departPos="base" arrivalPos="max"/>
    <trip id="a164" depart="492.00" from="enx4y5nx4y4" to="enx4y1nx4y0" type="vt1" departLane="best" departSpeed="max" departPos="base" arrivalPos="max"/>
    <trip id="a165" depart="495.00" from="enx4y0nx4y1" to="enx4y4nx4y5" type="vt1" departLane="best" departSpeed="max" departPos="base" arrivalPos="max"/>
    <trip id="a166" depart="498.00" from="enx0y3nx1y3" to="enx4y1nx4y0" type="vt1" departLane="best" departSpeed="max" departPos="base" arrivalPos="max"/>
    <trip id="a167" depart="501.00" from="enx0y1nx1y1" to="enx4y4nx4y5" type="vt1" departLane="best" departSpeed="max" departPos="base" arrivalPos="max"/>
    <trip id="a168" depart="504.00" from="enx0y3nx1y3" to="enx4y1nx5y1" type="vt1" departLane="best" departSpeed="max" departPos="base" arrivalPos="max"/>
    <trip id="a169" depart="507.00" from="enx5y1nx4y1" to="enx2y4nx2y5" type="vt1" departLane="best" departSpeed="max" departPos="base" arrivalPos="max"/>
    <trip id="a170" depart="510.00" from="enx3y0nx3y1" to="enx3y4nx3y5" type="vt1" departLane="best" departSpeed="max" departPos="base" arrivalPos="max"/>
    <trip id="a171" depart="513.00" from="enx5y1nx4y1" to="enx1y4nx0y4" type="vt1" departLane="best" departSpeed="max" departPos="base" arrivalPos="max"/>
    <trip id="a172" depart="516.00" from="enx0y3nx1y3" to="enx4y4nx5y4" type="vt1" departLane="best" departSpeed="max" departPos="base" arrivalPos="max"/>
    <trip id="a173" depart="519.00" from="enx5y4nx4y4" to="enx1y2nx0y2" type="vt1" departLane="best" departSpeed="max" departPos="base" arrivalPos="max"/>
    <trip id="a174" depart="522.00" from="enx3y5nx3y4" to="enx3y1nx3y0" type="vt1" departLane="best" departSpeed="max" departPos="base" arrivalPos="max"/>
    <trip id="a175" depart="525.00" from="enx4y5nx4y4" to="enx4y1nx4y0" type="vt1" departLane="best" departSpeed="max" departPos="base" arrivalPos="max"/>
    <trip id="a176" depart="528.00" from="enx4y0nx4y1" to="enx2y4nx2y5" type="vt1" departLane="best" departSpeed="max" departPos="base" arrivalPos="max"/>
    <trip id="a177" depart="531.00" from="enx5y4nx4y4" to="enx1y3nx0y3" type="vt1" departLane="best" departSpeed="max" departPos="base" arrivalPos="max"/>
    <trip id="a178" depart="534.00" from="enx0y1nx1y1" to="enx4y4nx5y4" type="vt1" departLane="best" departSpeed="max" departPos="base" arrivalPos="max"/>
    <trip id="a179" depart="537.00" from="enx2y0nx2y1" to="enx3y4nx3y5" type="vt1" departLane="best" departSpeed="max" departPos="base" arrivalPos="max"/>
    <trip id="a180" depart="540.00" from="enx1y5nx1y4" to="enx3y1nx3y0" type="vt1" departLane="best" departSpeed="max" departPos="base" arrivalPos="max"/>
    <trip id="a181" depart="543.00" from="enx2y5nx2y4" to="enx3y1nx3y0" type="vt1" departLane="best" departSpeed="max" departPos="base" arrivalPos="max"/>
    <trip id="a182" depart="546.00" from="enx0y4nx1y4" to="enx4y3nx5y3" type="vt1" departLane="best" departSpeed="max" departPos="base" arrivalPos="max"/>
    <trip id="a183" depart="549.00" from="enx0y4nx1y4" to="enx4y2nx5y2" type="vt1" departLane="best" departSpeed="max" departPos="base" arrivalPos="max"/>
    <trip id="a184" depart="552.00" from="enx3y5nx3y4" to="enx3y1nx3y0" type="vt1" departLane="best" departSpeed="max" departPos="base" arrivalPos="max"/>
    <trip id="a185" depart="555.00" from="enx3y5nx3y4" to="enx1y1nx1y0" type="vt1" departLane="best" departSpeed="max" departPos="base" arrivalPos="max"/>
    <trip id="a186" depart="558.00" from="enx4y5nx4y4" to="enx2y1nx2y0" type="vt1" departLane="best" departSpeed="max" departPos="base" arrivalPos="max"/>
    <trip id="a187" depart="561.00" from="enx4y0nx4y1" to="enx3y4nx3y5" type="vt1" departLane="best" departSpeed="max" departPos="base" arrivalPos="max"/>
    <trip id="a188" depart="564.00" from="enx0y4nx1y4" to="enx4y1nx5y1" type="vt1" departLane="best" departSpeed="max" departPos="base" arrivalPos="max"/>
    <trip id="a189" depart="567.00" from="enx1y5nx1y4" to="enx3y1nx3y0" type="vt1" departLane="best" departSpeed="max" departPos="base" arrivalPos="max"/>
    <trip id="a190" depart="570.00" from="enx0y2nx1y2" to="enx4y3nx5y3" type="vt1" departLane="best" departSpeed="max" departPos="base" arrivalPos="max"/>