<?xml version="1.0" encoding="UTF-8"?>

<!-- generated on Sun Mar  5 15:25:10 2017 by SUMO netgenerate Version 0.29.0
<?xml version="1.0" encoding="UTF-8"?>

<configuration xmlns:xsi="http://www.w3.org/2001/XMLSchema-instance" xsi:noNamespaceSchemaLocation="http://sumo.dlr.de/xsd/netgenerateConfiguration.xsd">

    <grid_network>
        <grid value="true"/>
        <grid.x-number value="4"/>
        <grid.y-number value="3"/>
        <grid.x-length value="300"/>
        <grid.y-length value="350"/>
        <grid.attach-length value="300"/>
    </grid_network>

    <tls_building>
        <tls.guess value="true"/>
        <tls.yellow.time value="3"/>
        <tls.left-green.time value="7"/>
        <tls.default-type value="actuated"/>
    </tls_building>

</configuration>
-->

<net version="0.27" xmlns:xsi="http://www.w3.org/2001/XMLSchema-instance" xsi:noNamespaceSchemaLocation="http://sumo.dlr.de/xsd/net_file.xsd">

    <location netOffset="0.00,0.00" convBoundary="0.00,0.00,1500.00,1300.00" origBoundary="0.00,0.00,1500.00,1300.00" projParameter="!"/>

    <edge id=":0/0_0" function="internal">
        <lane id=":0/0_0_0" index="0" speed="13.90" length="5.00" shape="298.35,304.75 298.16,303.39 297.58,302.42 296.61,301.84 295.25,301.65"/>
    </edge>
    <edge id=":0/0_1" function="internal">
        <lane id=":0/0_1_0" index="0" speed="13.90" length="9.50" shape="298.35,304.75 298.35,295.25"/>
    </edge>
    <edge id=":0/0_2" function="internal">
        <lane id=":0/0_2_0" index="0" speed="13.90" length="5.28" shape="298.35,304.75 298.75,301.95 299.95,299.95 300.05,299.89"/>
    </edge>
    <edge id=":0/0_3" function="internal">
        <lane id=":0/0_3_0" index="0" speed="13.90" length="2.41" shape="298.35,304.75 299.17,303.51 300.00,303.10"/>
    </edge>
    <edge id=":0/0_16" function="internal">
        <lane id=":0/0_16_0" index="0" speed="13.90" length="5.04" shape="300.05,299.89 301.95,298.75 304.75,298.35"/>
    </edge>
    <edge id=":0/0_17" function="internal">
        <lane id=":0/0_17_0" index="0" speed="13.90" length="2.41" shape="300.00,303.10 300.82,303.51 301.65,304.75"/>
    </edge>
    <edge id=":0/0_4" function="internal">
        <lane id=":0/0_4_0" index="0" speed="13.90" length="5.00" shape="304.75,301.65 303.39,301.84 302.42,302.42 301.84,303.39 301.65,304.75"/>
    </edge>
    <edge id=":0/0_5" function="internal">
        <lane id=":0/0_5_0" index="0" speed="13.90" length="9.50" shape="304.75,301.65 295.25,301.65"/>
    </edge>
    <edge id=":0/0_6" function="internal">
        <lane id=":0/0_6_0" index="0" speed="13.90" length="5.28" shape="304.75,301.65 301.95,301.25 299.95,300.05 299.89,299.95"/>
    </edge>
    <edge id=":0/0_7" function="internal">
        <lane id=":0/0_7_0" index="0" speed="13.90" length="2.41" shape="304.75,301.65 303.51,300.83 303.10,300.00"/>
    </edge>
    <edge id=":0/0_18" function="internal">
        <lane id=":0/0_18_0" index="0" speed="13.90" length="5.04" shape="299.89,299.95 298.75,298.05 298.35,295.25"/>
    </edge>
    <edge id=":0/0_19" function="internal">
        <lane id=":0/0_19_0" index="0" speed="13.90" length="2.41" shape="303.10,300.00 303.51,299.18 304.75,298.35"/>
    </edge>
    <edge id=":0/0_8" function="internal">
        <lane id=":0/0_8_0" index="0" speed="13.90" length="5.00" shape="301.65,295.25 301.84,296.61 302.42,297.58 303.39,298.16 304.75,298.35"/>
    </edge>
    <edge id=":0/0_9" function="internal">
        <lane id=":0/0_9_0" index="0" speed="13.90" length="9.50" shape="301.65,295.25 301.65,304.75"/>
    </edge>
    <edge id=":0/0_10" function="internal">
        <lane id=":0/0_10_0" index="0" speed="13.90" length="5.28" shape="301.65,295.25 301.25,298.05 300.05,300.05 299.95,300.11"/>
    </edge>
    <edge id=":0/0_11" function="internal">
        <lane id=":0/0_11_0" index="0" speed="13.90" length="2.41" shape="301.65,295.25 300.83,296.49 300.00,296.90"/>
    </edge>
    <edge id=":0/0_20" function="internal">
        <lane id=":0/0_20_0" index="0" speed="13.90" length="5.04" shape="299.95,300.11 298.05,301.25 295.25,301.65"/>
    </edge>
    <edge id=":0/0_21" function="internal">
        <lane id=":0/0_21_0" index="0" speed="13.90" length="2.41" shape="300.00,296.90 299.18,296.49 298.35,295.25"/>
    </edge>
    <edge id=":0/0_12" function="internal">
        <lane id=":0/0_12_0" index="0" speed="13.90" length="5.00" shape="295.25,298.35 296.61,298.16 297.58,297.58 298.16,296.61 298.35,295.25"/>
    </edge>
    <edge id=":0/0_13" function="internal">
        <lane id=":0/0_13_0" index="0" speed="13.90" length="9.50" shape="295.25,298.35 304.75,298.35"/>
    </edge>
    <edge id=":0/0_14" function="internal">
        <lane id=":0/0_14_0" index="0" speed="13.90" length="5.28" shape="295.25,298.35 298.05,298.75 300.05,299.95 300.11,300.05"/>
    </edge>
    <edge id=":0/0_15" function="internal">
        <lane id=":0/0_15_0" index="0" speed="13.90" length="2.41" shape="295.25,298.35 296.49,299.17 296.90,300.00"/>
    </edge>
    <edge id=":0/0_22" function="internal">
        <lane id=":0/0_22_0" index="0" speed="13.90" length="5.04" shape="300.11,300.05 301.25,301.95 301.65,304.75"/>
    </edge>
    <edge id=":0/0_23" function="internal">
        <lane id=":0/0_23_0" index="0" speed="13.90" length="2.41" shape="296.90,300.00 296.49,300.82 295.25,301.65"/>
    </edge>
    <edge id=":0/1_0" function="internal">
        <lane id=":0/1_0_0" index="0" speed="13.90" length="5.00" shape="298.35,654.75 298.16,653.39 297.58,652.42 296.61,651.84 295.25,651.65"/>
    </edge>
    <edge id=":0/1_1" function="internal">
        <lane id=":0/1_1_0" index="0" speed="13.90" length="9.50" shape="298.35,654.75 298.35,645.25"/>
    </edge>
    <edge id=":0/1_2" function="internal">
        <lane id=":0/1_2_0" index="0" speed="13.90" length="5.28" shape="298.35,654.75 298.75,651.95 299.95,649.95 300.05,649.89"/>
    </edge>
    <edge id=":0/1_3" function="internal">
        <lane id=":0/1_3_0" index="0" speed="13.90" length="2.41" shape="298.35,654.75 299.17,653.51 300.00,653.10"/>
    </edge>
    <edge id=":0/1_16" function="internal">
        <lane id=":0/1_16_0" index="0" speed="13.90" length="5.04" shape="300.05,649.89 301.95,648.75 304.75,648.35"/>
    </edge>
    <edge id=":0/1_17" function="internal">
        <lane id=":0/1_17_0" index="0" speed="13.90" length="2.41" shape="300.00,653.10 300.82,653.51 301.65,654.75"/>
    </edge>
    <edge id=":0/1_4" function="internal">
        <lane id=":0/1_4_0" index="0" speed="13.90" length="5.00" shape="304.75,651.65 303.39,651.84 302.42,652.42 301.84,653.39 301.65,654.75"/>
    </edge>
    <edge id=":0/1_5" function="internal">
        <lane id=":0/1_5_0" index="0" speed="13.90" length="9.50" shape="304.75,651.65 295.25,651.65"/>
    </edge>
    <edge id=":0/1_6" function="internal">
        <lane id=":0/1_6_0" index="0" speed="13.90" length="5.28" shape="304.75,651.65 301.95,651.25 299.95,650.05 299.89,649.95"/>
    </edge>
    <edge id=":0/1_7" function="internal">
        <lane id=":0/1_7_0" index="0" speed="13.90" length="2.41" shape="304.75,651.65 303.51,650.82 303.10,650.00"/>
    </edge>
    <edge id=":0/1_18" function="internal">
        <lane id=":0/1_18_0" index="0" speed="13.90" length="5.04" shape="299.89,649.95 298.75,648.05 298.35,645.25"/>
    </edge>
    <edge id=":0/1_19" function="internal">
        <lane id=":0/1_19_0" index="0" speed="13.90" length="2.41" shape="303.10,650.00 303.51,649.17 304.75,648.35"/>
    </edge>
    <edge id=":0/1_8" function="internal">
        <lane id=":0/1_8_0" index="0" speed="13.90" length="5.00" shape="301.65,645.25 301.84,646.61 302.42,647.58 303.39,648.16 304.75,648.35"/>
    </edge>
    <edge id=":0/1_9" function="internal">
        <lane id=":0/1_9_0" index="0" speed="13.90" length="9.50" shape="301.65,645.25 301.65,654.75"/>
    </edge>
    <edge id=":0/1_10" function="internal">
        <lane id=":0/1_10_0" index="0" speed="13.90" length="5.28" shape="301.65,645.25 301.25,648.05 300.05,650.05 299.95,650.11"/>
    </edge>
    <edge id=":0/1_11" function="internal">
        <lane id=":0/1_11_0" index="0" speed="13.90" length="2.41" shape="301.65,645.25 300.83,646.49 300.00,646.90"/>
    </edge>
    <edge id=":0/1_20" function="internal">
        <lane id=":0/1_20_0" index="0" speed="13.90" length="5.04" shape="299.95,650.11 298.05,651.25 295.25,651.65"/>
    </edge>
    <edge id=":0/1_21" function="internal">
        <lane id=":0/1_21_0" index="0" speed="13.90" length="2.41" shape="300.00,646.90 299.18,646.49 298.35,645.25"/>
    </edge>
    <edge id=":0/1_12" function="internal">
        <lane id=":0/1_12_0" index="0" speed="13.90" length="5.00" shape="295.25,648.35 296.61,648.16 297.58,647.58 298.16,646.61 298.35,645.25"/>
    </edge>
    <edge id=":0/1_13" function="internal">
        <lane id=":0/1_13_0" index="0" speed="13.90" length="9.50" shape="295.25,648.35 304.75,648.35"/>
    </edge>
    <edge id=":0/1_14" function="internal">
        <lane id=":0/1_14_0" index="0" speed="13.90" length="5.28" shape="295.25,648.35 298.05,648.75 300.05,649.95 300.11,650.05"/>
    </edge>
    <edge id=":0/1_15" function="internal">
        <lane id=":0/1_15_0" index="0" speed="13.90" length="2.41" shape="295.25,648.35 296.49,649.18 296.90,650.00"/>
    </edge>
    <edge id=":0/1_22" function="internal">
        <lane id=":0/1_22_0" index="0" speed="13.90" length="5.04" shape="300.11,650.05 301.25,651.95 301.65,654.75"/>
    </edge>
    <edge id=":0/1_23" function="internal">
        <lane id=":0/1_23_0" index="0" speed="13.90" length="2.41" shape="296.90,650.00 296.49,650.83 295.25,651.65"/>
    </edge>
    <edge id=":0/2_0" function="internal">
        <lane id=":0/2_0_0" index="0" speed="13.90" length="5.00" shape="298.35,1004.75 298.16,1003.39 297.58,1002.43 296.61,1001.84 295.25,1001.65"/>
    </edge>
    <edge id=":0/2_1" function="internal">
        <lane id=":0/2_1_0" index="0" speed="13.90" length="9.50" shape="298.35,1004.75 298.35,995.25"/>
    </edge>
    <edge id=":0/2_2" function="internal">
        <lane id=":0/2_2_0" index="0" speed="13.90" length="5.28" shape="298.35,1004.75 298.75,1001.95 299.95,999.95 300.05,999.89"/>
    </edge>
    <edge id=":0/2_3" function="internal">
        <lane id=":0/2_3_0" index="0" speed="13.90" length="2.41" shape="298.35,1004.75 299.17,1003.51 300.00,1003.10"/>
    </edge>
    <edge id=":0/2_16" function="internal">
        <lane id=":0/2_16_0" index="0" speed="13.90" length="5.04" shape="300.05,999.89 301.95,998.75 304.75,998.35"/>
    </edge>
    <edge id=":0/2_17" function="internal">
        <lane id=":0/2_17_0" index="0" speed="13.90" length="2.41" shape="300.00,1003.10 300.82,1003.51 301.65,1004.75"/>
    </edge>
    <edge id=":0/2_4" function="internal">
        <lane id=":0/2_4_0" index="0" speed="13.90" length="5.00" shape="304.75,1001.65 303.39,1001.84 302.42,1002.42 301.84,1003.39 301.65,1004.75"/>
    </edge>
    <edge id=":0/2_5" function="internal">
        <lane id=":0/2_5_0" index="0" speed="13.90" length="9.50" shape="304.75,1001.65 295.25,1001.65"/>
    </edge>
    <edge id=":0/2_6" function="internal">
        <lane id=":0/2_6_0" index="0" speed="13.90" length="5.28" shape="304.75,1001.65 301.95,1001.25 299.95,1000.05 299.89,999.95"/>
    </edge>
    <edge id=":0/2_7" function="internal">
        <lane id=":0/2_7_0" index="0" speed="13.90" length="2.41" shape="304.75,1001.65 303.51,1000.83 303.10,1000.00"/>
    </edge>
    <edge id=":0/2_18" function="internal">
        <lane id=":0/2_18_0" index="0" speed="13.90" length="5.04" shape="299.89,999.95 298.75,998.05 298.35,995.25"/>
    </edge>
    <edge id=":0/2_19" function="internal">
        <lane id=":0/2_19_0" index="0" speed="13.90" length="2.41" shape="303.10,1000.00 303.51,999.17 304.75,998.35"/>
    </edge>
    <edge id=":0/2_8" function="internal">
        <lane id=":0/2_8_0" index="0" speed="13.90" length="5.00" shape="301.65,995.25 301.84,996.61 302.42,997.57 303.39,998.16 304.75,998.35"/>
    </edge>
    <edge id=":0/2_9" function="internal">
        <lane id=":0/2_9_0" index="0" speed="13.90" length="9.50" shape="301.65,995.25 301.65,1004.75"/>
    </edge>
    <edge id=":0/2_10" function="internal">
        <lane id=":0/2_10_0" index="0" speed="13.90" length="5.28" shape="301.65,995.25 301.25,998.05 300.05,1000.05 299.95,1000.11"/>
    </edge>
    <edge id=":0/2_11" function="internal">
        <lane id=":0/2_11_0" index="0" speed="13.90" length="2.41" shape="301.65,995.25 300.83,996.49 300.00,996.90"/>
    </edge>
    <edge id=":0/2_20" function="internal">
        <lane id=":0/2_20_0" index="0" speed="13.90" length="5.04" shape="299.95,1000.11 298.05,1001.25 295.25,1001.65"/>
    </edge>
    <edge id=":0/2_21" function="internal">
        <lane id=":0/2_21_0" index="0" speed="13.90" length="2.41" shape="300.00,996.90 299.18,996.49 298.35,995.25"/>
    </edge>
    <edge id=":0/2_12" function="internal">
        <lane id=":0/2_12_0" index="0" speed="13.90" length="5.00" shape="295.25,998.35 296.61,998.16 297.58,997.58 298.16,996.61 298.35,995.25"/>
    </edge>
    <edge id=":0/2_13" function="internal">
        <lane id=":0/2_13_0" index="0" speed="13.90" length="9.50" shape="295.25,998.35 304.75,998.35"/>
    </edge>
    <edge id=":0/2_14" function="internal">
        <lane id=":0/2_14_0" index="0" speed="13.90" length="5.28" shape="295.25,998.35 298.05,998.75 300.05,999.95 300.11,1000.05"/>
    </edge>
    <edge id=":0/2_15" function="internal">
        <lane id=":0/2_15_0" index="0" speed="13.90" length="2.41" shape="295.25,998.35 296.49,999.17 296.90,1000.00"/>
    </edge>
    <edge id=":0/2_22" function="internal">
        <lane id=":0/2_22_0" index="0" speed="13.90" length="5.04" shape="300.11,1000.05 301.25,1001.95 301.65,1004.75"/>
    </edge>
    <edge id=":0/2_23" function="internal">
        <lane id=":0/2_23_0" index="0" speed="13.90" length="2.41" shape="296.90,1000.00 296.49,1000.83 295.25,1001.65"/>
    </edge>
    <edge id=":1/0_0" function="internal">
        <lane id=":1/0_0_0" index="0" speed="13.90" length="5.00" shape="598.35,304.75 598.16,303.39 597.58,302.42 596.61,301.84 595.25,301.65"/>
    </edge>
    <edge id=":1/0_1" function="internal">
        <lane id=":1/0_1_0" index="0" speed="13.90" length="9.50" shape="598.35,304.75 598.35,295.25"/>
    </edge>
    <edge id=":1/0_2" function="internal">
        <lane id=":1/0_2_0" index="0" speed="13.90" length="5.28" shape="598.35,304.75 598.75,301.95 599.95,299.95 600.05,299.89"/>
    </edge>
    <edge id=":1/0_3" function="internal">
        <lane id=":1/0_3_0" index="0" speed="13.90" length="2.41" shape="598.35,304.75 599.18,303.51 600.00,303.10"/>
    </edge>
    <edge id=":1/0_16" function="internal">
        <lane id=":1/0_16_0" index="0" speed="13.90" length="5.04" shape="600.05,299.89 601.95,298.75 604.75,298.35"/>
    </edge>
    <edge id=":1/0_17" function="internal">
        <lane id=":1/0_17_0" index="0" speed="13.90" length="2.41" shape="600.00,303.10 600.83,303.51 601.65,304.75"/>
    </edge>
    <edge id=":1/0_4" function="internal">
        <lane id=":1/0_4_0" index="0" speed="13.90" length="5.00" shape="604.75,301.65 603.39,301.84 602.42,302.42 601.84,303.39 601.65,304.75"/>
    </edge>
    <edge id=":1/0_5" function="internal">
        <lane id=":1/0_5_0" index="0" speed="13.90" length="9.50" shape="604.75,301.65 595.25,301.65"/>
    </edge>
    <edge id=":1/0_6" function="internal">
        <lane id=":1/0_6_0" index="0" speed="13.90" length="5.28" shape="604.75,301.65 601.95,301.25 599.95,300.05 599.89,299.95"/>
    </edge>
    <edge id=":1/0_7" function="internal">
        <lane id=":1/0_7_0" index="0" speed="13.90" length="2.41" shape="604.75,301.65 603.51,300.83 603.10,300.00"/>
    </edge>
    <edge id=":1/0_18" function="internal">
        <lane id=":1/0_18_0" index="0" speed="13.90" length="5.04" shape="599.89,299.95 598.75,298.05 598.35,295.25"/>
    </edge>
    <edge id=":1/0_19" function="internal">
        <lane id=":1/0_19_0" index="0" speed="13.90" length="2.41" shape="603.10,300.00 603.51,299.18 604.75,298.35"/>
    </edge>
    <edge id=":1/0_8" function="internal">
        <lane id=":1/0_8_0" index="0" speed="13.90" length="5.00" shape="601.65,295.25 601.84,296.61 602.42,297.58 603.39,298.16 604.75,298.35"/>
    </edge>
    <edge id=":1/0_9" function="internal">
        <lane id=":1/0_9_0" index="0" speed="13.90" length="9.50" shape="601.65,295.25 601.65,304.75"/>
    </edge>
    <edge id=":1/0_10" function="internal">
        <lane id=":1/0_10_0" index="0" speed="13.90" length="5.28" shape="601.65,295.25 601.25,298.05 600.05,300.05 599.95,300.11"/>
    </edge>
    <edge id=":1/0_11" function="internal">
        <lane id=":1/0_11_0" index="0" speed="13.90" length="2.41" shape="601.65,295.25 600.82,296.49 600.00,296.90"/>
    </edge>
    <edge id=":1/0_20" function="internal">
        <lane id=":1/0_20_0" index="0" speed="13.90" length="5.04" shape="599.95,300.11 598.05,301.25 595.25,301.65"/>
    </edge>
    <edge id=":1/0_21" function="internal">
        <lane id=":1/0_21_0" index="0" speed="13.90" length="2.41" shape="600.00,296.90 599.17,296.49 598.35,295.25"/>
    </edge>
    <edge id=":1/0_12" function="internal">
        <lane id=":1/0_12_0" index="0" speed="13.90" length="5.00" shape="595.25,298.35 596.61,298.16 597.58,297.58 598.16,296.61 598.35,295.25"/>
    </edge>
    <edge id=":1/0_13" function="internal">
        <lane id=":1/0_13_0" index="0" speed="13.90" length="9.50" shape="595.25,298.35 604.75,298.35"/>
    </edge>
    <edge id=":1/0_14" function="internal">
        <lane id=":1/0_14_0" index="0" speed="13.90" length="5.28" shape="595.25,298.35 598.05,298.75 600.05,299.95 600.11,300.05"/>
    </edge>
    <edge id=":1/0_15" function="internal">
        <lane id=":1/0_15_0" index="0" speed="13.90" length="2.41" shape="595.25,298.35 596.49,299.17 596.90,300.00"/>
    </edge>
    <edge id=":1/0_22" function="internal">
        <lane id=":1/0_22_0" index="0" speed="13.90" length="5.04" shape="600.11,300.05 601.25,301.95 601.65,304.75"/>
    </edge>
    <edge id=":1/0_23" function="internal">
        <lane id=":1/0_23_0" index="0" speed="13.90" length="2.41" shape="596.90,300.00 596.49,300.82 595.25,301.65"/>
    </edge>
    <edge id=":1/1_0" function="internal">
        <lane id=":1/1_0_0" index="0" speed="13.90" length="5.00" shape="598.35,654.75 598.16,653.39 597.58,652.42 596.61,651.84 595.25,651.65"/>
    </edge>
    <edge id=":1/1_1" function="internal">
        <lane id=":1/1_1_0" index="0" speed="13.90" length="9.50" shape="598.35,654.75 598.35,645.25"/>
    </edge>
    <edge id=":1/1_2" function="internal">
        <lane id=":1/1_2_0" index="0" speed="13.90" length="5.28" shape="598.35,654.75 598.75,651.95 599.95,649.95 600.05,649.89"/>
    </edge>
    <edge id=":1/1_3" function="internal">
        <lane id=":1/1_3_0" index="0" speed="13.90" length="2.41" shape="598.35,654.75 599.18,653.51 600.00,653.10"/>
    </edge>
    <edge id=":1/1_16" function="internal">
        <lane id=":1/1_16_0" index="0" speed="13.90" length="5.04" shape="600.05,649.89 601.95,648.75 604.75,648.35"/>
    </edge>
    <edge id=":1/1_17" function="internal">
        <lane id=":1/1_17_0" index="0" speed="13.90" length="2.41" shape="600.00,653.10 600.83,653.51 601.65,654.75"/>
    </edge>
    <edge id=":1/1_4" function="internal">
        <lane id=":1/1_4_0" index="0" speed="13.90" length="5.00" shape="604.75,651.65 603.39,651.84 602.42,652.42 601.84,653.39 601.65,654.75"/>
    </edge>
    <edge id=":1/1_5" function="internal">
        <lane id=":1/1_5_0" index="0" speed="13.90" length="9.50" shape="604.75,651.65 595.25,651.65"/>
    </edge>
    <edge id=":1/1_6" function="internal">
        <lane id=":1/1_6_0" index="0" speed="13.90" length="5.28" shape="604.75,651.65 601.95,651.25 599.95,650.05 599.89,649.95"/>
    </edge>
    <edge id=":1/1_7" function="internal">
        <lane id=":1/1_7_0" index="0" speed="13.90" length="2.41" shape="604.75,651.65 603.51,650.82 603.10,650.00"/>
    </edge>
    <edge id=":1/1_18" function="internal">
        <lane id=":1/1_18_0" index="0" speed="13.90" length="5.04" shape="599.89,649.95 598.75,648.05 598.35,645.25"/>
    </edge>
    <edge id=":1/1_19" function="internal">
        <lane id=":1/1_19_0" index="0" speed="13.90" length="2.41" shape="603.10,650.00 603.51,649.17 604.75,648.35"/>
    </edge>
    <edge id=":1/1_8" function="internal">
        <lane id=":1/1_8_0" index="0" speed="13.90" length="5.00" shape="601.65,645.25 601.84,646.61 602.42,647.58 603.39,648.16 604.75,648.35"/>
    </edge>
    <edge id=":1/1_9" function="internal">
        <lane id=":1/1_9_0" index="0" speed="13.90" length="9.50" shape="601.65,645.25 601.65,654.75"/>
    </edge>
    <edge id=":1/1_10" function="internal">
        <lane id=":1/1_10_0" index="0" speed="13.90" length="5.28" shape="601.65,645.25 601.25,648.05 600.05,650.05 599.95,650.11"/>
    </edge>
    <edge id=":1/1_11" function="internal">
        <lane id=":1/1_11_0" index="0" speed="13.90" length="2.41" shape="601.65,645.25 600.82,646.49 600.00,646.90"/>
    </edge>
    <edge id=":1/1_20" function="internal">
        <lane id=":1/1_20_0" index="0" speed="13.90" length="5.04" shape="599.95,650.11 598.05,651.25 595.25,651.65"/>
    </edge>
    <edge id=":1/1_21" function="internal">
        <lane id=":1/1_21_0" index="0" speed="13.90" length="2.41" shape="600.00,646.90 599.17,646.49 598.35,645.25"/>
    </edge>
    <edge id=":1/1_12" function="internal">
        <lane id=":1/1_12_0" index="0" speed="13.90" length="5.00" shape="595.25,648.35 596.61,648.16 597.58,647.58 598.16,646.61 598.35,645.25"/>
    </edge>
    <edge id=":1/1_13" function="internal">
        <lane id=":1/1_13_0" index="0" speed="13.90" length="9.50" shape="595.25,648.35 604.75,648.35"/>
    </edge>
    <edge id=":1/1_14" function="internal">
        <lane id=":1/1_14_0" index="0" speed="13.90" length="5.28" shape="595.25,648.35 598.05,648.75 600.05,649.95 600.11,650.05"/>
    </edge>
    <edge id=":1/1_15" function="internal">
        <lane id=":1/1_15_0" index="0" speed="13.90" length="2.41" shape="595.25,648.35 596.49,649.18 596.90,650.00"/>
    </edge>
    <edge id=":1/1_22" function="internal">
        <lane id=":1/1_22_0" index="0" speed="13.90" length="5.04" shape="600.11,650.05 601.25,651.95 601.65,654.75"/>
    </edge>
    <edge id=":1/1_23" function="internal">
        <lane id=":1/1_23_0" index="0" speed="13.90" length="2.41" shape="596.90,650.00 596.49,650.83 595.25,651.65"/>
    </edge>
    <edge id=":1/2_0" function="internal">
        <lane id=":1/2_0_0" index="0" speed="13.90" length="5.00" shape="598.35,1004.75 598.16,1003.39 597.58,1002.43 596.61,1001.84 595.25,1001.65"/>
    </edge>
    <edge id=":1/2_1" function="internal">
        <lane id=":1/2_1_0" index="0" speed="13.90" length="9.50" shape="598.35,1004.75 598.35,995.25"/>
    </edge>
    <edge id=":1/2_2" function="internal">
        <lane id=":1/2_2_0" index="0" speed="13.90" length="5.28" shape="598.35,1004.75 598.75,1001.95 599.95,999.95 600.05,999.89"/>
    </edge>
    <edge id=":1/2_3" function="internal">
        <lane id=":1/2_3_0" index="0" speed="13.90" length="2.41" shape="598.35,1004.75 599.18,1003.51 600.00,1003.10"/>
    </edge>
    <edge id=":1/2_16" function="internal">
        <lane id=":1/2_16_0" index="0" speed="13.90" length="5.04" shape="600.05,999.89 601.95,998.75 604.75,998.35"/>
    </edge>
    <edge id=":1/2_17" function="internal">
        <lane id=":1/2_17_0" index="0" speed="13.90" length="2.41" shape="600.00,1003.10 600.83,1003.51 601.65,1004.75"/>
    </edge>
    <edge id=":1/2_4" function="internal">
        <lane id=":1/2_4_0" index="0" speed="13.90" length="5.00" shape="604.75,1001.65 603.39,1001.84 602.42,1002.42 601.84,1003.39 601.65,1004.75"/>
    </edge>
    <edge id=":1/2_5" function="internal">
        <lane id=":1/2_5_0" index="0" speed="13.90" length="9.50" shape="604.75,1001.65 595.25,1001.65"/>
    </edge>
    <edge id=":1/2_6" function="internal">
        <lane id=":1/2_6_0" index="0" speed="13.90" length="5.28" shape="604.75,1001.65 601.95,1001.25 599.95,1000.05 599.89,999.95"/>
    </edge>
    <edge id=":1/2_7" function="internal">
        <lane id=":1/2_7_0" index="0" speed="13.90" length="2.41" shape="604.75,1001.65 603.51,1000.83 603.10,1000.00"/>
    </edge>
    <edge id=":1/2_18" function="internal">
        <lane id=":1/2_18_0" index="0" speed="13.90" length="5.04" shape="599.89,999.95 598.75,998.05 598.35,995.25"/>
    </edge>
    <edge id=":1/2_19" function="internal">
        <lane id=":1/2_19_0" index="0" speed="13.90" length="2.41" shape="603.10,1000.00 603.51,999.17 604.75,998.35"/>
    </edge>
    <edge id=":1/2_8" function="internal">
        <lane id=":1/2_8_0" index="0" speed="13.90" length="5.00" shape="601.65,995.25 601.84,996.61 602.42,997.57 603.39,998.16 604.75,998.35"/>
    </edge>
    <edge id=":1/2_9" function="internal">
        <lane id=":1/2_9_0" index="0" speed="13.90" length="9.50" shape="601.65,995.25 601.65,1004.75"/>
    </edge>
    <edge id=":1/2_10" function="internal">
        <lane id=":1/2_10_0" index="0" speed="13.90" length="5.28" shape="601.65,995.25 601.25,998.05 600.05,1000.05 599.95,1000.11"/>
    </edge>
    <edge id=":1/2_11" function="internal">
        <lane id=":1/2_11_0" index="0" speed="13.90" length="2.41" shape="601.65,995.25 600.82,996.49 600.00,996.90"/>
    </edge>
    <edge id=":1/2_20" function="internal">
        <lane id=":1/2_20_0" index="0" speed="13.90" length="5.04" shape="599.95,1000.11 598.05,1001.25 595.25,1001.65"/>
    </edge>
    <edge id=":1/2_21" function="internal">
        <lane id=":1/2_21_0" index="0" speed="13.90" length="2.41" shape="600.00,996.90 599.17,996.49 598.35,995.25"/>
    </edge>
    <edge id=":1/2_12" function="internal">
        <lane id=":1/2_12_0" index="0" speed="13.90" length="5.00" shape="595.25,998.35 596.61,998.16 597.58,997.58 598.16,996.61 598.35,995.25"/>
    </edge>
    <edge id=":1/2_13" function="internal">
        <lane id=":1/2_13_0" index="0" speed="13.90" length="9.50" shape="595.25,998.35 604.75,998.35"/>
    </edge>
    <edge id=":1/2_14" function="internal">
        <lane id=":1/2_14_0" index="0" speed="13.90" length="5.28" shape="595.25,998.35 598.05,998.75 600.05,999.95 600.11,1000.05"/>
    </edge>
    <edge id=":1/2_15" function="internal">
        <lane id=":1/2_15_0" index="0" speed="13.90" length="2.41" shape="595.25,998.35 596.49,999.17 596.90,1000.00"/>
    </edge>
    <edge id=":1/2_22" function="internal">
        <lane id=":1/2_22_0" index="0" speed="13.90" length="5.04" shape="600.11,1000.05 601.25,1001.95 601.65,1004.75"/>
    </edge>
    <edge id=":1/2_23" function="internal">
        <lane id=":1/2_23_0" index="0" speed="13.90" length="2.41" shape="596.90,1000.00 596.49,1000.83 595.25,1001.65"/>
    </edge>
    <edge id=":2/0_0" function="internal">
        <lane id=":2/0_0_0" index="0" speed="13.90" length="5.00" shape="898.35,304.75 898.16,303.39 897.58,302.42 896.61,301.84 895.25,301.65"/>
    </edge>
    <edge id=":2/0_1" function="internal">
        <lane id=":2/0_1_0" index="0" speed="13.90" length="9.50" shape="898.35,304.75 898.35,295.25"/>
    </edge>
    <edge id=":2/0_2" function="internal">
        <lane id=":2/0_2_0" index="0" speed="13.90" length="5.28" shape="898.35,304.75 898.75,301.95 899.95,299.95 900.05,299.89"/>
    </edge>
    <edge id=":2/0_3" function="internal">
        <lane id=":2/0_3_0" index="0" speed="13.90" length="2.41" shape="898.35,304.75 899.18,303.51 900.00,303.10"/>
    </edge>
    <edge id=":2/0_16" function="internal">
        <lane id=":2/0_16_0" index="0" speed="13.90" length="5.04" shape="900.05,299.89 901.95,298.75 904.75,298.35"/>
    </edge>
    <edge id=":2/0_17" function="internal">
        <lane id=":2/0_17_0" index="0" speed="13.90" length="2.41" shape="900.00,303.10 900.83,303.51 901.65,304.75"/>
    </edge>
    <edge id=":2/0_4" function="internal">
        <lane id=":2/0_4_0" index="0" speed="13.90" length="5.00" shape="904.75,301.65 903.39,301.84 902.43,302.42 901.84,303.39 901.65,304.75"/>
    </edge>
    <edge id=":2/0_5" function="internal">
        <lane id=":2/0_5_0" index="0" speed="13.90" length="9.50" shape="904.75,301.65 895.25,301.65"/>
    </edge>
    <edge id=":2/0_6" function="internal">
        <lane id=":2/0_6_0" index="0" speed="13.90" length="5.28" shape="904.75,301.65 901.95,301.25 899.95,300.05 899.89,299.95"/>
    </edge>
    <edge id=":2/0_7" function="internal">
        <lane id=":2/0_7_0" index="0" speed="13.90" length="2.41" shape="904.75,301.65 903.51,300.83 903.10,300.00"/>
    </edge>
    <edge id=":2/0_18" function="internal">
        <lane id=":2/0_18_0" index="0" speed="13.90" length="5.04" shape="899.89,299.95 898.75,298.05 898.35,295.25"/>
    </edge>
    <edge id=":2/0_19" function="internal">
        <lane id=":2/0_19_0" index="0" speed="13.90" length="2.41" shape="903.10,300.00 903.51,299.18 904.75,298.35"/>
    </edge>
    <edge id=":2/0_8" function="internal">
        <lane id=":2/0_8_0" index="0" speed="13.90" length="5.00" shape="901.65,295.25 901.84,296.61 902.42,297.58 903.39,298.16 904.75,298.35"/>
    </edge>
    <edge id=":2/0_9" function="internal">
        <lane id=":2/0_9_0" index="0" speed="13.90" length="9.50" shape="901.65,295.25 901.65,304.75"/>
    </edge>
    <edge id=":2/0_10" function="internal">
        <lane id=":2/0_10_0" index="0" speed="13.90" length="5.28" shape="901.65,295.25 901.25,298.05 900.05,300.05 899.95,300.11"/>
    </edge>
    <edge id=":2/0_11" function="internal">
        <lane id=":2/0_11_0" index="0" speed="13.90" length="2.41" shape="901.65,295.25 900.82,296.49 900.00,296.90"/>
    </edge>
    <edge id=":2/0_20" function="internal">
        <lane id=":2/0_20_0" index="0" speed="13.90" length="5.04" shape="899.95,300.11 898.05,301.25 895.25,301.65"/>
    </edge>
    <edge id=":2/0_21" function="internal">